Public_Data_PSSEFiles/LL_Report/A01_BaseCaseWithoutPPA_07062018_solved.raw
0,100.0


1,'Costa su    ',115.0,1,0.0,0.0,1,1,1.0454130352,10.3410077512,1
2,'Bayamon     ',115.0,1,0.0,0.0,1,1,1.034967435,8.2147362459,1
3,'Rio Laja    ',115.0,1,0.0,0.0,1,1,1.0310298315,7.2087630501,1
4,'Mayaguez    ',115.0,1,0.0,0.0,1,1,1.0447980618,7.5678296063,1
5,'Aguadill    ',115.0,1,0.0,0.0,1,1,1.0383367897,7.3135550892,1
6,'Mora        ',115.0,1,0.0,0.0,1,1,1.0296417756,7.3096073656,1
7,'San Anto    ',115.0,1,0.0,0.0,1,1,1.0275319366,7.2814466094,1
8,'Monacill    ',115.0,1,0.0,0.0,1,1,1.0373529978,7.8275173938,1
9,'Aguas Bu    ',115.0,1,0.0,0.0,1,1,1.0370091601,7.8751152489,1
10,'Aurora      ',115.0,1,0.0,0.0,1,1,1.0279317782,5.8926465587,1
11,'Ecoelect    ',115.0,1,0.0,0.0,1,1,1.0206473113,2.8270261726,1
12,'Arecibo     ',115.0,1,0.0,0.0,1,1,1.0275424761,7.112728628,1
13,'Toro Neg    ',115.0,1,0.0,0.0,1,1,1.020715255,4.2341265934,1
14,'Ponce       ',115.0,1,0.0,0.0,1,1,1.0225890392,3.0830724626,1
15,'San Seba    ',115.0,1,0.0,0.0,1,1,1.0327663736,7.3016242235,1
16,'Don Boco    ',115.0,1,0.0,0.0,1,1,1.0243924091,7.0728656931,1
17,'Pajaros     ',115.0,1,0.0,0.0,1,1,1.030937746,7.5345740793,1
18,'Ciales      ',115.0,1,0.0,0.0,1,1,1.028972968,7.2536897929,1
19,'Dos Boca    ',115.0,1,0.0,0.0,1,1,1.0243733112,7.0717207766,1
20,'Sabana L    ',115.0,1,0.0,0.0,1,1,1.0359046054,7.3991155145,1
21,'Caguas      ',115.0,1,0.0,0.0,1,1,1.0361865581,9.4940899715,1
22,'San Juan    ',115.0,1,0.0,0.0,1,1,1.0327738891,7.8280309611,1
23,'Puerto N    ',115.0,1,0.0,0.0,1,1,1.0327900441,7.8278166691,1
24,'Union Ca    ',115.0,1,0.0,0.0,1,1,1.0298410337,6.7139523325,1
25,'San Juan    ',115.0,1,0.0,0.0,1,1,1.0327811169,8.0169768807,1
26,'Hato Rey    ',115.0,1,0.0,0.0,1,1,1.0330674217,7.7751515348,1
27,'Daguao      ',115.0,1,0.0,0.0,1,1,1.0346941288,6.9166328279,1
28,'Trujillo    ',115.0,1,0.0,0.0,1,1,1.0395950064,7.5877140608,1
29,'Fajardo     ',115.0,1,0.0,0.0,1,1,1.0470331005,6.3633543539,1
30,'Aguirre     ',115.0,3,0.0,0.0,1,1,1.0146459638,0.0,1
31,'Maunabo     ',115.0,1,0.0,0.0,1,1,1.0275257951,5.6287694891,1
32,'Candeler    ',115.0,1,0.0,0.0,1,1,1.0314273427,6.5403758842,1
33,'Humacao     ',115.0,1,0.0,0.0,1,1,1.030090008,6.4201756864,1
34,'Comerio     ',115.0,1,0.0,0.0,1,1,1.0340614416,7.4676388089,1
35,'Coto Nor    ',115.0,1,0.0,0.0,1,1,1.0369642907,6.5842748053,1
36,'Monte Ca    ',115.0,1,0.0,0.0,1,1,1.0278289973,6.0824254434,1
37,'Central     ',115.0,1,0.0,0.0,1,1,1.025595042,7.1083245172,1
38,'Cayey       ',115.0,1,0.0,0.0,1,1,1.0275588559,8.3918052666,1
39,'Toro Neg    ',115.0,1,0.0,0.0,1,1,1.0421061471,7.8290434322,1
40,'Central     ',115.0,1,0.0,0.0,1,1,1.0354239133,8.8803133128,1
41,'Planta d    ',115.0,1,0.0,0.0,1,1,1.032330923,8.6014459158,1
42,'Planta d    ',115.0,1,0.0,0.0,1,1,1.0324342509,9.8173977589,1
43,'Central     ',115.0,1,0.0,0.0,1,1,1.0257481904,6.9096079584,1
44,'Rio Blan    ',115.0,1,0.0,0.0,1,1,1.0340681628,6.9621823201,1
45,'Quebrada    ',115.0,1,0.0,0.0,1,1,1.026866056,6.996480175,1
46,'Caonilla    ',115.0,2,0.0,0.0,1,1,1.0230026286,7.3746511626,1
47,'Loiza Ta    ',115.0,1,0.0,0.0,1,1,1.0261003645,7.0475643503,1
48,'Yabucoa     ',115.0,1,0.0,0.0,1,1,1.0349762403,6.0360415579,1
49,'Planta H    ',115.0,1,0.0,0.0,1,1,1.0324570791,8.5175943562,1
50,'Olimpo T    ',115.0,1,0.0,0.0,1,1,1.0256989154,6.9323509411,1
51,'Aguas Bu    ',230.0,1,0.0,0.0,1,1,1.0552926029,6.7133625603,1
52,'Aguirre_    ',230.0,1,0.0,0.0,1,1,1.0561539051,5.6738571126,1
53,'Aurora_H    ',230.0,1,0.0,0.0,1,1,1.0527854661,6.5752587375,1
54,'Bayamon_    ',230.0,1,0.0,0.0,1,1,1.0557804237,6.9605301304,1
55,'Candeler    ',230.0,1,0.0,0.0,1,1,1.0484962382,6.5750904158,1
56,'Comerio_    ',230.0,1,0.0,0.0,1,1,1.0365155692,7.8212922115,1
57,'Costa su    ',230.0,1,0.0,0.0,1,1,1.0654511855,6.9516963543,1
58,'Coto Nor    ',230.0,1,0.0,0.0,1,1,1.0598274675,6.8603512518,1
59,'Mayaguez    ',230.0,1,0.0,0.0,1,1,1.0625616361,7.2188167935,1
60,'Rio Blan    ',230.0,1,0.0,0.0,1,1,1.0503029963,6.8615298291,1
61,'Sabana L    ',230.0,1,0.0,0.0,1,1,1.0540024539,6.8053343163,1
62,'kVSub19     ',38.0,1,0.0,0.0,1,1,1.0307012655,7.1385554456,1
63,'kVSub21     ',38.0,1,0.0,0.0,1,1,1.0235653634,7.336110734,1
64,'kVSub28     ',38.0,1,0.0,0.0,1,1,1.0235655426,7.3361925136,1
65,'kVSub46     ',38.0,1,0.0,0.0,1,1,1.0235653918,7.3362116849,1
66,'kVSub66     ',38.0,1,0.0,0.0,1,1,1.0172654843,6.7181411524,1
67,'kVSub124    ',38.0,1,0.0,0.0,1,1,1.0235654787,7.3361891654,1
68,'kVSub41     ',38.0,1,0.0,0.0,1,1,1.0435919409,14.2959013791,1
69,'kVSub0      ',38.0,2,0.0,0.0,1,1,1.043592176,14.295981139,1
70,'kVSub102    ',38.0,1,0.0,0.0,1,1,1.0235653752,7.3361183109,1
71,'kVSub139    ',38.0,1,0.0,0.0,1,1,1.0172653667,6.7181415037,1
72,'kVSub285    ',38.0,1,0.0,0.0,1,1,1.0162589036,2.306504797,1
73,'kVSub297    ',38.0,1,0.0,0.0,1,1,1.0407681942,5.6464488634,1
74,'kVSub136    ',38.0,1,0.0,0.0,1,1,1.0235578163,7.3366420606,1
75,'kVSub142    ',38.0,1,0.0,0.0,1,1,1.0220288383,5.4841811395,1
76,'kVSub192    ',38.0,1,0.0,0.0,1,1,1.0326905433,7.2857902205,1
77,'kVSub294    ',38.0,1,0.0,0.0,1,1,1.0096747158,4.0059469344,1
78,'kVSub88     ',38.0,1,0.0,0.0,1,1,1.0313614754,8.0136014464,1
79,'kVSub83     ',38.0,1,0.0,0.0,1,1,1.0435917713,14.2958995048,1
80,'kVSub239    ',38.0,1,0.0,0.0,1,1,1.0235659896,7.3359860182,1
81,'kVSub245    ',38.0,1,0.0,0.0,1,1,1.0235648579,7.3362757379,1
82,'kVSub264    ',38.0,1,0.0,0.0,1,1,1.0235660008,7.3360338062,1
83,'kVSub299    ',38.0,1,0.0,0.0,1,1,1.0235655565,7.3361928627,1
84,'kVSub165    ',38.0,1,0.0,0.0,1,1,1.0172653593,6.7181406619,1
85,'kVSub182    ',38.0,1,0.0,0.0,1,1,1.0172653676,6.7181392505,1
86,'kVSub288    ',38.0,1,0.0,0.0,1,1,1.0171570661,3.8131763998,1
87,'kVSub125    ',38.0,1,0.0,0.0,1,1,1.0235653971,7.3362105808,1
88,'kVSub230    ',38.0,1,0.0,0.0,1,1,1.0235653838,7.3361159018,1
89,'kVSub54     ',38.0,1,0.0,0.0,1,1,1.023565391,7.3362113244,1
90,'kVSub100    ',38.0,1,0.0,0.0,1,1,1.0235655734,7.3362018706,1
91,'kVSub260    ',38.0,1,0.0,0.0,1,1,1.0235658587,7.3360509764,1
92,'kVSub53     ',38.0,1,0.0,0.0,1,1,1.0245669714,6.7254076941,1
93,'kVSub2      ',38.0,2,0.0,0.0,1,1,1.0435919342,14.2959038543,1
94,'kVSub58     ',38.0,1,0.0,0.0,1,1,1.0235653905,7.3362112899,1
95,'kVSub178    ',38.0,1,0.0,0.0,1,1,1.0235660201,7.3359711949,1
96,'kVSub70     ',38.0,1,0.0,0.0,1,1,1.0235655708,7.3362027117,1
97,'kVSub1      ',38.0,2,0.0,0.0,1,1,1.0172653556,6.7181375364,1
98,'kVSub101    ',38.0,1,0.0,0.0,1,1,1.0235653658,7.3361190867,1
99,'kVSub103    ',38.0,1,0.0,0.0,1,1,1.023565436,7.3361534529,1
100,'kVSub104    ',38.0,1,0.0,0.0,1,1,1.0235655399,7.3361934074,1
101,'kVSub105    ',38.0,1,0.0,0.0,1,1,1.0235655397,7.3361930519,1
102,'kVSub107    ',38.0,1,0.0,0.0,1,1,1.0235652769,7.336149501,1
103,'kVSub108    ',38.0,1,0.0,0.0,1,1,1.0235652755,7.3361492557,1
104,'kVSub109    ',38.0,1,0.0,0.0,1,1,1.0435921661,14.2959794134,1
105,'kVSub11     ',38.0,1,0.0,0.0,1,1,1.0235653599,7.3361645419,1
106,'kVSub110    ',38.0,1,0.0,0.0,1,1,1.0435921672,14.2959795919,1
107,'kVSub111    ',38.0,1,0.0,0.0,1,1,1.0435921661,14.2959794124,1
108,'kVSub112    ',38.0,1,0.0,0.0,1,1,1.0435921662,14.2959794293,1
109,'kVSub113    ',38.0,1,0.0,0.0,1,1,1.0435921673,14.2959796082,1
110,'kVSub114    ',38.0,1,0.0,0.0,1,1,1.0435921672,14.2959795919,1
111,'kVSub115    ',38.0,1,0.0,0.0,1,1,1.0235653091,7.3361533086,1
112,'kVSub116    ',38.0,1,0.0,0.0,1,1,1.0,0.0,1
113,'kVSub117    ',38.0,1,0.0,0.0,1,1,1.0,0.0,1
114,'kVSub118    ',38.0,1,0.0,0.0,1,1,1.0235653884,7.3362114469,1
115,'kVSub120    ',38.0,1,0.0,0.0,1,1,1.0235653884,7.3362114469,1
116,'kVSub121    ',38.0,1,0.0,0.0,1,1,1.0235653884,7.3362114486,1
117,'kVSub122    ',38.0,1,0.0,0.0,1,1,1.023565388,7.3362113904,1
118,'kVSub123    ',38.0,1,0.0,0.0,1,1,1.0235653908,7.3362108447,1
119,'kVSub126    ',38.0,1,0.0,0.0,1,1,1.023565978,7.3359872111,1
120,'kVSub127    ',38.0,1,0.0,0.0,1,1,1.0235659772,7.335987066,1
121,'kVSub128    ',38.0,1,0.0,0.0,1,1,1.0,0.0,1
122,'kVSub129    ',38.0,1,0.0,0.0,1,1,1.0235639594,7.3363103894,1
123,'kVSub13     ',38.0,1,0.0,0.0,1,1,1.0235655222,7.3361862255,1
124,'kVSub130    ',38.0,1,0.0,0.0,1,1,1.0235549225,7.336783508,1
125,'kVSub131    ',38.0,1,0.0,0.0,1,1,1.0235648923,7.3362705634,1
126,'kVSub132    ',38.0,1,0.0,0.0,1,1,1.0235657672,7.3360724849,1
127,'kVSub133    ',38.0,1,0.0,0.0,1,1,1.0235647412,7.3362689911,1
128,'kVSub134    ',38.0,1,0.0,0.0,1,1,1.0235545387,7.3368100578,1
129,'kVSub135    ',38.0,1,0.0,0.0,1,1,1.0172653528,6.718140714,1
130,'kVSub137    ',38.0,1,0.0,0.0,1,1,1.0235577163,7.3366436101,1
131,'kVSub138    ',38.0,1,0.0,0.0,1,1,1.0235647303,7.3362670653,1
132,'kVSub14     ',38.0,1,0.0,0.0,1,1,1.0,0.0,1
133,'kVSub140    ',38.0,1,0.0,0.0,1,1,1.0172653535,6.7181408351,1
134,'kVSub141    ',38.0,1,0.0,0.0,1,1,1.0235646498,7.3362528456,1
135,'kVSub143    ',38.0,1,0.0,0.0,1,1,1.0220288114,5.4841765518,1
136,'kVSub144    ',38.0,1,0.0,0.0,1,1,1.0235545039,7.3368090395,1
137,'kVSub145    ',38.0,1,0.0,0.0,1,1,1.0235646562,7.3362538601,1
138,'kVSub147    ',38.0,1,0.0,0.0,1,1,1.04076819,5.6464481654,1
139,'kVSub148    ',38.0,1,0.0,0.0,1,1,1.0235545416,7.3368105477,1
140,'kVSub149    ',38.0,1,0.0,0.0,1,1,1.0235545392,7.3368101412,1
141,'kVSub150    ',38.0,1,0.0,0.0,1,1,1.0172653404,6.7181411658,1
142,'kVSub151    ',38.0,1,0.0,0.0,1,1,1.023565966,7.3359709916,1
143,'kVSub152    ',38.0,1,0.0,0.0,1,1,1.0235545396,7.3368101993,1
144,'kVSub153    ',38.0,1,0.0,0.0,1,1,1.0096746207,4.0059323466,1
145,'kVSub154    ',38.0,1,0.0,0.0,1,1,1.0235646617,7.3362548765,1
146,'kVSub155    ',38.0,1,0.0,0.0,1,1,1.0172653528,6.718140714,1
147,'kVSub156    ',38.0,1,0.0,0.0,1,1,1.0235653812,7.3362163168,1
148,'kVSub157    ',38.0,1,0.0,0.0,1,1,1.0172653489,6.7181409386,1
149,'kVSub158    ',38.0,1,0.0,0.0,1,1,1.0172653535,6.7181408351,1
150,'kVSub159    ',38.0,1,0.0,0.0,1,1,1.0172653417,6.7181413944,1
151,'kVSub16     ',38.0,1,0.0,0.0,1,1,1.0,0.0,1
152,'kVSub161    ',38.0,1,0.0,0.0,1,1,1.0172653417,6.7181413944,1
153,'kVSub162    ',38.0,1,0.0,0.0,1,1,1.0172653404,6.7181411658,1
154,'kVSub163    ',38.0,1,0.0,0.0,1,1,1.0172653498,6.7181408582,1
155,'kVSub164    ',38.0,1,0.0,0.0,1,1,1.0235545413,7.3368104896,1
156,'kVSub166    ',38.0,1,0.0,0.0,1,1,1.0235658915,7.3359578021,1
157,'kVSub168    ',38.0,1,0.0,0.0,1,1,1.0235653971,7.3362082073,1
158,'kVSub169    ',38.0,1,0.0,0.0,1,1,1.0235653884,7.3362114469,1
159,'kVSub17     ',38.0,1,0.0,0.0,1,1,1.0235655396,7.3361930607,1
160,'kVSub170    ',38.0,1,0.0,0.0,1,1,1.0235652708,7.3362219324,1
161,'kVSub171    ',38.0,1,0.0,0.0,1,1,1.0235658892,7.3359573956,1
162,'kVSub172    ',38.0,1,0.0,0.0,1,1,1.0235658892,7.3359573956,1
163,'kVSub173    ',38.0,1,0.0,0.0,1,1,1.0235659258,7.3359638886,1
164,'kVSub174    ',38.0,1,0.0,0.0,1,1,1.0172653706,6.7181379879,1
165,'kVSub175    ',38.0,1,0.0,0.0,1,1,1.0235658935,7.3359581408,1
166,'kVSub176    ',38.0,1,0.0,0.0,1,1,1.0235658915,7.3359578021,1
167,'kVSub177    ',38.0,1,0.0,0.0,1,1,1.0235659848,7.335974325,1
168,'kVSub179    ',38.0,1,0.0,0.0,1,1,1.0235657126,7.3360915835,1
169,'kVSub18     ',38.0,1,0.0,0.0,1,1,1.0,0.0,1
170,'kVSub180    ',38.0,1,0.0,0.0,1,1,1.0235647412,7.3362689911,1
171,'kVSub181    ',38.0,1,0.0,0.0,1,1,1.0096746865,4.0059420484,1
172,'kVSub183    ',38.0,1,0.0,0.0,1,1,1.0172653417,6.7181413944,1
173,'kVSub184    ',38.0,1,0.0,0.0,1,1,1.0235659865,7.3359746153,1
174,'kVSub185    ',38.0,1,0.0,0.0,1,1,1.023565903,7.3359598312,1
175,'kVSub186    ',38.0,1,0.0,0.0,1,1,1.0,0.0,1
176,'kVSub187    ',38.0,1,0.0,0.0,1,1,1.0,0.0,1
177,'kVSub188    ',38.0,1,0.0,0.0,1,1,1.0,0.0,1
178,'kVSub189    ',38.0,1,0.0,0.0,1,1,1.0162588965,2.3065035542,1
179,'kVSub190    ',38.0,1,0.0,0.0,1,1,1.0235658935,7.3359581408,1
180,'kVSub191    ',38.0,1,0.0,0.0,1,1,1.0,0.0,1
181,'kVSub193    ',38.0,1,0.0,0.0,1,1,1.0,0.0,1
182,'kVSub194    ',38.0,1,0.0,0.0,1,1,1.0,0.0,1
183,'kVSub195    ',38.0,1,0.0,0.0,1,1,1.0,0.0,1
184,'kVSub196    ',38.0,1,0.0,0.0,1,1,1.0162588961,2.3065034855,1
185,'kVSub197    ',38.0,1,0.0,0.0,1,1,1.0235646507,7.3362528437,1
186,'kVSub198    ',38.0,1,0.0,0.0,1,1,1.0172653402,6.7181352353,1
187,'kVSub20     ',38.0,1,0.0,0.0,1,1,1.0235655397,7.3361930519,1
188,'kVSub200    ',38.0,1,0.0,0.0,1,1,1.0235658935,7.3359581408,1
189,'kVSub203    ',38.0,1,0.0,0.0,1,1,1.0220288151,5.4841771891,1
190,'kVSub204    ',38.0,1,0.0,0.0,1,1,1.0235659865,7.3359746153,1
191,'kVSub205    ',38.0,1,0.0,0.0,1,1,1.023565978,7.3359872111,1
192,'kVSub206    ',38.0,1,0.0,0.0,1,1,1.0235653884,7.3362114469,1
193,'kVSub207    ',38.0,1,0.0,0.0,1,1,1.0407681899,5.6464481373,1
194,'kVSub208    ',38.0,1,0.0,0.0,1,1,1.0235658161,7.3360585269,1
195,'kVSub209    ',38.0,1,0.0,0.0,1,1,1.0235657672,7.3360724849,1
196,'kVSub210    ',38.0,1,0.0,0.0,1,1,1.0172653561,6.7181378298,1
197,'kVSub211    ',38.0,1,0.0,0.0,1,1,1.0172653535,6.7181408351,1
198,'kVSub212    ',38.0,1,0.0,0.0,1,1,1.0172653535,6.7181408351,1
199,'kVSub213    ',38.0,1,0.0,0.0,1,1,1.0096746328,4.0059325594,1
200,'kVSub214    ',38.0,1,0.0,0.0,1,1,1.04076819,5.6464481654,1
...
0 / END OF BUS DATA, BEGIN LOAD DATA
62,' C',1,1,1,3.1943806354,1.0499421408,0.0,0.0,0.0,0.0,1
62,' I',1,1,1,14.9071096317,4.8997299901,0.0,0.0,0.0,0.0,1
62,' P',1,1,1,3.1943806354,1.0499421408,0.0,0.0,0.0,0.0,1
63,' C',1,1,1,1.5701261418,0.516075506,0.0,0.0,0.0,0.0,1
63,' I',1,1,1,7.3272553286,2.4083523611,0.0,0.0,0.0,0.0,1
63,' P',1,1,1,1.5701261418,0.516075506,0.0,0.0,0.0,0.0,1
64,' C',1,1,1,3.1943806354,1.0499421408,0.0,0.0,0.0,0.0,1
64,' I',1,1,1,14.9071096317,4.8997299901,0.0,0.0,0.0,0.0,1
64,' P',1,1,1,3.1943806354,1.0499421408,0.0,0.0,0.0,0.0,1
65,' C',1,1,1,3.1943806354,1.0499421408,0.0,0.0,0.0,0.0,1
65,' I',1,1,1,14.9071096317,4.8997299901,0.0,0.0,0.0,0.0,1
65,' P',1,1,1,3.1943806354,1.0499421408,0.0,0.0,0.0,0.0,1
66,' C',1,1,1,1.5701261418,0.516075506,0.0,0.0,0.0,0.0,1
66,' I',1,1,1,7.3272553286,2.4083523611,0.0,0.0,0.0,0.0,1
66,' P',1,1,1,1.5701261418,0.516075506,0.0,0.0,0.0,0.0,1
67,' C',1,1,1,1.5701261418,0.516075506,0.0,0.0,0.0,0.0,1
67,' I',1,1,1,7.3272553286,2.4083523611,0.0,0.0,0.0,0.0,1
67,' P',1,1,1,1.5701261418,0.516075506,0.0,0.0,0.0,0.0,1
68,' C',1,1,1,3.1943806354,1.0499421408,0.0,0.0,0.0,0.0,1
68,' I',1,1,1,14.9071096317,4.8997299901,0.0,0.0,0.0,0.0,1
68,' P',1,1,1,3.1943806354,1.0499421408,0.0,0.0,0.0,0.0,1
69,' C',1,1,1,1.5701261418,0.516075506,0.0,0.0,0.0,0.0,1
69,' I',1,1,1,7.3272553286,2.4083523611,0.0,0.0,0.0,0.0,1
69,' P',1,1,1,1.5701261418,0.516075506,0.0,0.0,0.0,0.0,1
70,' C',1,1,1,3.1943806354,1.0499421408,0.0,0.0,0.0,0.0,1
70,' I',1,1,1,14.9071096317,4.8997299901,0.0,0.0,0.0,0.0,1
70,' P',1,1,1,3.1943806354,1.0499421408,0.0,0.0,0.0,0.0,1
71,' C',1,1,1,1.5701261418,0.516075506,0.0,0.0,0.0,0.0,1
71,' I',1,1,1,7.3272553286,2.4083523611,0.0,0.0,0.0,0.0,1
71,' P',1,1,1,1.5701261418,0.516075506,0.0,0.0,0.0,0.0,1
72,' C',1,1,1,1.5701261418,0.516075506,0.0,0.0,0.0,0.0,1
72,' I',1,1,1,7.3272553286,2.4083523611,0.0,0.0,0.0,0.0,1
72,' P',1,1,1,1.5701261418,0.516075506,0.0,0.0,0.0,0.0,1
73,' C',1,1,1,3.1943806354,1.0499421408,0.0,0.0,0.0,0.0,1
73,' I',1,1,1,14.9071096317,4.8997299901,0.0,0.0,0.0,0.0,1
73,' P',1,1,1,3.1943806354,1.0499421408,0.0,0.0,0.0,0.0,1
74,' C',1,1,1,3.1943806354,1.0499421408,0.0,0.0,0.0,0.0,1
74,' I',1,1,1,14.9071096317,4.8997299901,0.0,0.0,0.0,0.0,1
74,' P',1,1,1,3.1943806354,1.0499421408,0.0,0.0,0.0,0.0,1
75,' C',1,1,1,3.1943806354,1.0499421408,0.0,0.0,0.0,0.0,1
75,' I',1,1,1,14.9071096317,4.8997299901,0.0,0.0,0.0,0.0,1
75,' P',1,1,1,3.1943806354,1.0499421408,0.0,0.0,0.0,0.0,1
76,' C',1,1,1,3.1943806354,1.0499421408,0.0,0.0,0.0,0.0,1
76,' I',1,1,1,14.9071096317,4.8997299901,0.0,0.0,0.0,0.0,1
76,' P',1,1,1,3.1943806354,1.0499421408,0.0,0.0,0.0,0.0,1
77,' C',1,1,1,3.1943806354,1.0499421408,0.0,0.0,0.0,0.0,1
77,' I',1,1,1,14.9071096317,4.8997299901,0.0,0.0,0.0,0.0,1
77,' P',1,1,1,3.1943806354,1.0499421408,0.0,0.0,0.0,0.0,1
78,' C',1,1,1,3.1943806354,1.0499421408,0.0,0.0,0.0,0.0,1
78,' I',1,1,1,14.9071096317,4.8997299901,0.0,0.0,0.0,0.0,1
78,' P',1,1,1,3.1943806354,1.0499421408,0.0,0.0,0.0,0.0,1
79,' C',1,1,1,3.1943806354,1.0499421408,0.0,0.0,0.0,0.0,1
79,' I',1,1,1,14.9071096317,4.8997299901,0.0,0.0,0.0,0.0,1
79,' P',1,1,1,3.1943806354,1.0499421408,0.0,0.0,0.0,0.0,1
80,' C',1,1,1,3.1943806354,1.0499421408,0.0,0.0,0.0,0.0,1
80,' I',1,1,1,14.9071096317,4.8997299901,0.0,0.0,0.0,0.0,1
80,' P',1,1,1,3.1943806354,1.0499421408,0.0,0.0,0.0,0.0,1
81,' C',1,1,1,3.1943806354,1.0499421408,0.0,0.0,0.0,0.0,1
81,' I',1,1,1,14.9071096317,4.8997299901,0.0,0.0,0.0,0.0,1
81,' P',1,1,1,3.1943806354,1.0499421408,0.0,0.0,0.0,0.0,1
82,' C',1,1,1,3.1943806354,1.0499421408,0.0,0.0,0.0,0.0,1
82,' I',1,1,1,14.9071096317,4.8997299901,0.0,0.0,0.0,0.0,1
82,' P',1,1,1,3.1943806354,1.0499421408,0.0,0.0,0.0,0.0,1
83,' C',1,1,1,1.5701261418,0.516075506,0.0,0.0,0.0,0.0,1
83,' I',1,1,1,7.3272553286,2.4083523611,0.0,0.0,0.0,0.0,1
83,' P',1,1,1,1.5701261418,0.516075506,0.0,0.0,0.0,0.0,1
84,' C',1,1,1,3.1943806354,1.0499421408,0.0,0.0,0.0,0.0,1
84,' I',1,1,1,14.9071096317,4.8997299901,0.0,0.0,0.0,0.0,1
84,' P',1,1,1,3.1943806354,1.0499421408,0.0,0.0,0.0,0.0,1
85,' C',1,1,1,1.5701261418,0.516075506,0.0,0.0,0.0,0.0,1
85,' I',1,1,1,7.3272553286,2.4083523611,0.0,0.0,0.0,0.0,1
85,' P',1,1,1,1.5701261418,0.516075506,0.0,0.0,0.0,0.0,1
86,' C',1,1,1,1.5701261418,0.516075506,0.0,0.0,0.0,0.0,1
86,' I',1,1,1,7.3272553286,2.4083523611,0.0,0.0,0.0,0.0,1
86,' P',1,1,1,1.5701261418,0.516075506,0.0,0.0,0.0,0.0,1
87,' C',1,1,1,1.5701261418,0.516075506,0.0,0.0,0.0,0.0,1
87,' I',1,1,1,7.3272553286,2.4083523611,0.0,0.0,0.0,0.0,1
87,' P',1,1,1,1.5701261418,0.516075506,0.0,0.0,0.0,0.0,1
88,' C',1,1,1,1.5701261418,0.516075506,0.0,0.0,0.0,0.0,1
88,' I',1,1,1,7.3272553286,2.4083523611,0.0,0.0,0.0,0.0,1
88,' P',1,1,1,1.5701261418,0.516075506,0.0,0.0,0.0,0.0,1
89,' C',1,1,1,1.5701261418,0.516075506,0.0,0.0,0.0,0.0,1
89,' I',1,1,1,7.3272553286,2.4083523611,0.0,0.0,0.0,0.0,1
89,' P',1,1,1,1.5701261418,0.516075506,0.0,0.0,0.0,0.0,1
90,' C',1,1,1,3.1943806354,1.0499421408,0.0,0.0,0.0,0.0,1
90,' I',1,1,1,14.9071096317,4.8997299901,0.0,0.0,0.0,0.0,1
90,' P',1,1,1,3.1943806354,1.0499421408,0.0,0.0,0.0,0.0,1
91,' C',1,1,1,1.5701261418,0.516075506,0.0,0.0,0.0,0.0,1
91,' I',1,1,1,7.3272553286,2.4083523611,0.0,0.0,0.0,0.0,1
91,' P',1,1,1,1.5701261418,0.516075506,0.0,0.0,0.0,0.0,1
92,' C',1,1,1,1.5701261418,0.516075506,0.0,0.0,0.0,0.0,1
92,' I',1,1,1,7.3272553286,2.4083523611,0.0,0.0,0.0,0.0,1
92,' P',1,1,1,1.5701261418,0.516075506,0.0,0.0,0.0,0.0,1
93,' C',1,1,1,3.1943806354,1.0499421408,0.0,0.0,0.0,0.0,1
93,' I',1,1,1,14.9071096317,4.8997299901,0.0,0.0,0.0,0.0,1
93,' P',1,1,1,3.1943806354,1.0499421408,0.0,0.0,0.0,0.0,1
94,' C',1,1,1,3.1943806354,1.0499421408,0.0,0.0,0.0,0.0,1
94,' I',1,1,1,14.9071096317,4.8997299901,0.0,0.0,0.0,0.0,1
94,' P',1,1,1,3.1943806354,1.0499421408,0.0,0.0,0.0,0.0,1
95,' C',1,1,1,3.1943806354,1.0499421408,0.0,0.0,0.0,0.0,1
95,' I',1,1,1,14.9071096317,4.8997299901,0.0,0.0,0.0,0.0,1
95,' P',1,1,1,3.1943806354,1.0499421408,0.0,0.0,0.0,0.0,1
96,' C',1,1,1,1.5701261418,0.516075506,0.0,0.0,0.0,0.0,1
96,' I',1,1,1,7.3272553286,2.4083523611,0.0,0.0,0.0,0.0,1
96,' P',1,1,1,1.5701261418,0.516075506,0.0,0.0,0.0,0.0,1
97,' C',1,1,1,0.8361618507,0.2748331097,0.0,0.0,0.0,0.0,1
97,' I',1,1,1,3.9020886365,1.2825545118,0.0,0.0,0.0,0.0,1
97,' P',1,1,1,0.8361618507,0.2748331097,0.0,0.0,0.0,0.0,1
98,' C',1,1,1,0.8361618507,0.2748331097,0.0,0.0,0.0,0.0,1
98,' I',1,1,1,3.9020886365,1.2825545118,0.0,0.0,0.0,0.0,1
98,' P',1,1,1,0.8361618507,0.2748331097,0.0,0.0,0.0,0.0,1
99,' C',1,1,1,0.8361618507,0.2748331097,0.0,0.0,0.0,0.0,1
99,' I',1,1,1,3.9020886365,1.2825545118,0.0,0.0,0.0,0.0,1
99,' P',1,1,1,0.8361618507,0.2748331097,0.0,0.0,0.0,0.0,1
100,' C',1,1,1,0.8361618507,0.2748331097,0.0,0.0,0.0,0.0,1
100,' I',1,1,1,3.9020886365,1.2825545118,0.0,0.0,0.0,0.0,1
100,' P',1,1,1,0.8361618507,0.2748331097,0.0,0.0,0.0,0.0,1
101,' C',1,1,1,0.2787206169,0.0916110366,0.0,0.0,0.0,0.0,1
101,' I',1,1,1,1.3006962122,0.4275181706,0.0,0.0,0.0,0.0,1
101,' P',1,1,1,0.2787206169,0.0916110366,0.0,0.0,0.0,0.0,1
102,' C',1,1,1,0.2787206169,0.0916110366,0.0,0.0,0.0,0.0,1
102,' I',1,1,1,1.3006962122,0.4275181706,0.0,0.0,0.0,0.0,1
102,' P',1,1,1,0.2787206169,0.0916110366,0.0,0.0,0.0,0.0,1
103,' C',1,1,1,0.8361618507,0.2748331097,0.0,0.0,0.0,0.0,1
103,' I',1,1,1,3.9020886365,1.2825545118,0.0,0.0,0.0,0.0,1
103,' P',1,1,1,0.8361618507,0.2748331097,0.0,0.0,0.0,0.0,1
104,' C',1,1,1,0.8361618507,0.2748331097,0.0,0.0,0.0,0.0,1
104,' I',1,1,1,3.9020886365,1.2825545118,0.0,0.0,0.0,0.0,1
104,' P',1,1,1,0.8361618507,0.2748331097,0.0,0.0,0.0,0.0,1
105,' C',1,1,1,0.8361618507,0.2748331097,0.0,0.0,0.0,0.0,1
105,' I',1,1,1,3.9020886365,1.2825545118,0.0,0.0,0.0,0.0,1
105,' P',1,1,1,0.8361618507,0.2748331097,0.0,0.0,0.0,0.0,1
106,' C',1,1,1,0.2787206169,0.0916110366,0.0,0.0,0.0,0.0,1
106,' I',1,1,1,1.3006962122,0.4275181706,0.0,0.0,0.0,0.0,1
106,' P',1,1,1,0.2787206169,0.0916110366,0.0,0.0,0.0,0.0,1
107,' C',1,1,1,0.8361618507,0.2748331097,0.0,0.0,0.0,0.0,1
107,' I',1,1,1,3.9020886365,1.2825545118,0.0,0.0,0.0,0.0,1
107,' P',1,1,1,0.8361618507,0.2748331097,0.0,0.0,0.0,0.0,1
108,' C',1,1,1,0.8361618507,0.2748331097,0.0,0.0,0.0,0.0,1
108,' I',1,1,1,3.9020886365,1.2825545118,0.0,0.0,0.0,0.0,1
108,' P',1,1,1,0.8361618507,0.2748331097,0.0,0.0,0.0,0.0,1
109,' C',1,1,1,0.2787206169,0.0916110366,0.0,0.0,0.0,0.0,1
109,' I',1,1,1,1.3006962122,0.4275181706,0.0,0.0,0.0,0.0,1
109,' P',1,1,1,0.2787206169,0.0916110366,0.0,0.0,0.0,0.0,1
110,' C',1,1,1,0.2787206169,0.0916110366,0.0,0.0,0.0,0.0,1
110,' I',1,1,1,1.3006962122,0.4275181706,0.0,0.0,0.0,0.0,1
110,' P',1,1,1,0.2787206169,0.0916110366,0.0,0.0,0.0,0.0,1
111,' C',1,1,1,0.2787206169,0.0916110366,0.0,0.0,0.0,0.0,1
111,' I',1,1,1,1.3006962122,0.4275181706,0.0,0.0,0.0,0.0,1
111,' P',1,1,1,0.2787206169,0.0916110366,0.0,0.0,0.0,0.0,1
112,' C',1,1,1,0.2787206169,0.0916110366,0.0,0.0,0.0,0.0,1
112,' I',1,1,1,1.3006962122,0.4275181706,0.0,0.0,0.0,0.0,1
112,' P',1,1,1,0.2787206169,0.0916110366,0.0,0.0,0.0,0.0,1
113,' C',1,1,1,0.8361618507,0.2748331097,0.0,0.0,0.0,0.0,1
113,' I',1,1,1,3.9020886365,1.2825545118,0.0,0.0,0.0,0.0,1
113,' P',1,1,1,0.8361618507,0.2748331097,0.0,0.0,0.0,0.0,1
114,' C',1,1,1,0.2787206169,0.0916110366,0.0,0.0,0.0,0.0,1
114,' I',1,1,1,1.3006962122,0.4275181706,0.0,0.0,0.0,0.0,1
114,' P',1,1,1,0.2787206169,0.0916110366,0.0,0.0,0.0,0.0,1
115,' C',1,1,1,0.2787206169,0.0916110366,0.0,0.0,0.0,0.0,1
115,' I',1,1,1,1.3006962122,0.4275181706,0.0,0.0,0.0,0.0,1
115,' P',1,1,1,0.2787206169,0.0916110366,0.0,0.0,0.0,0.0,1
116,' C',1,1,1,0.2787206169,0.0916110366,0.0,0.0,0.0,0.0,1
116,' I',1,1,1,1.3006962122,0.4275181706,0.0,0.0,0.0,0.0,1
116,' P',1,1,1,0.2787206169,0.0916110366,0.0,0.0,0.0,0.0,1
117,' C',1,1,1,0.8361618507,0.2748331097,0.0,0.0,0.0,0.0,1
117,' I',1,1,1,3.9020886365,1.2825545118,0.0,0.0,0.0,0.0,1
117,' P',1,1,1,0.8361618507,0.2748331097,0.0,0.0,0.0,0.0,1
118,' C',1,1,1,0.2787206169,0.0916110366,0.0,0.0,0.0,0.0,1
118,' I',1,1,1,1.3006962122,0.4275181706,0.0,0.0,0.0,0.0,1
118,' P',1,1,1,0.2787206169,0.0916110366,0.0,0.0,0.0,0.0,1
119,' C',1,1,1,0.2787206169,0.0916110366,0.0,0.0,0.0,0.0,1
119,' I',1,1,1,1.3006962122,0.4275181706,0.0,0.0,0.0,0.0,1
119,' P',1,1,1,0.2787206169,0.0916110366,0.0,0.0,0.0,0.0,1
120,' C',1,1,1,0.8361618507,0.2748331097,0.0,0.0,0.0,0.0,1
120,' I',1,1,1,3.9020886365,1.2825545118,0.0,0.0,0.0,0.0,1
120,' P',1,1,1,0.8361618507,0.2748331097,0.0,0.0,0.0,0.0,1
121,' C',1,1,1,0.8361618507,0.2748331097,0.0,0.0,0.0,0.0,1
121,' I',1,1,1,3.9020886365,1.2825545118,0.0,0.0,0.0,0.0,1
121,' P',1,1,1,0.8361618507,0.2748331097,0.0,0.0,0.0,0.0,1
122,' C',1,1,1,0.8361618507,0.2748331097,0.0,0.0,0.0,0.0,1
122,' I',1,1,1,3.9020886365,1.2825545118,0.0,0.0,0.0,0.0,1
122,' P',1,1,1,0.8361618507,0.2748331097,0.0,0.0,0.0,0.0,1
123,' C',1,1,1,0.2787206169,0.0916110366,0.0,0.0,0.0,0.0,1
123,' I',1,1,1,1.3006962122,0.4275181706,0.0,0.0,0.0,0.0,1
123,' P',1,1,1,0.2787206169,0.0916110366,0.0,0.0,0.0,0.0,1
124,' C',1,1,1,0.2787206169,0.0916110366,0.0,0.0,0.0,0.0,1
124,' I',1,1,1,1.3006962122,0.4275181706,0.0,0.0,0.0,0.0,1
124,' P',1,1,1,0.2787206169,0.0916110366,0.0,0.0,0.0,0.0,1
125,' C',1,1,1,0.2787206169,0.0916110366,0.0,0.0,0.0,0.0,1
125,' I',1,1,1,1.3006962122,0.4275181706,0.0,0.0,0.0,0.0,1
125,' P',1,1,1,0.2787206169,0.0916110366,0.0,0.0,0.0,0.0,1
126,' C',1,1,1,0.2787206169,0.0916110366,0.0,0.0,0.0,0.0,1
126,' I',1,1,1,1.3006962122,0.4275181706,0.0,0.0,0.0,0.0,1
126,' P',1,1,1,0.2787206169,0.0916110366,0.0,0.0,0.0,0.0,1
127,' C',1,1,1,0.2787206169,0.0916110366,0.0,0.0,0.0,0.0,1
127,' I',1,1,1,1.3006962122,0.4275181706,0.0,0.0,0.0,0.0,1
127,' P',1,1,1,0.2787206169,0.0916110366,0.0,0.0,0.0,0.0,1
128,' C',1,1,1,0.8361618507,0.2748331097,0.0,0.0,0.0,0.0,1
128,' I',1,1,1,3.9020886365,1.2825545118,0.0,0.0,0.0,0.0,1
...
0 / END OF LOAD DATA, BEGIN GENERATOR DATA
30,' 1',-666.01766607,3.90078896,1092.0,-1092.0,1.0146459638,0,100.0,0.0,0.0,0.0,0.0,1.0,1,100.0,1092.0,0.0,1,1.0,0,1.0,0,1.0,0,1.0
46,' 1',20.01226024,-9.2630755,20.0,-20.0,1.0230026286,0,100.0,0.0,0.0,0.0,0.0,1.0,1,100.0,20.0,0.0,1,1.0,0,1.0,0,1.0,0,1.0
69,' 1',819.54459029,10.5232686,1358.0,-1358.0,1.043592176,0,100.0,0.0,0.0,0.0,0.0,1.0,1,100.0,1358.0,0.0,1,1.0,0,1.0,0,1.0,0,1.0
93,' 1',4.99826625,-5.04956004,5.0,-5.0,1.0435919342,0,100.0,0.0,0.0,0.0,0.0,1.0,1,100.0,5.0,0.0,1,1.0,0,1.0,0,1.0,0,1.0
97,' 1',-0.01581163,0.87957737,11.0,-11.0,1.0172653556,0,100.0,0.0,0.0,0.0,0.0,1.0,1,100.0,11.0,0.0,1,1.0,0,1.0,0,1.0,0,1.0
273,' 1',0.0137794,5.72686132,9.0,-9.0,1.0235653971,0,100.0,0.0,0.0,0.0,0.0,1.0,1,100.0,9.0,0.0,1,1.0,0,1.0,0,1.0,0,1.0
280,' 1',10.35187504,-17.99617165,18.0,-18.0,1.0513258157,0,100.0,0.0,0.0,0.0,0.0,1.0,1,100.0,18.0,0.0,1,1.0,0,1.0,0,1.0,0,1.0
352,' 1',0.32969688,393.78211492,454.0,-454.0,1.0235656803,0,100.0,0.0,0.0,0.0,0.0,1.0,1,100.0,454.0,0.0,1,1.0,0,1.0,0,1.0,0,1.0
361,' 1',0.03400428,30.11202315,33.0,-33.0,1.0235653962,0,100.0,0.0,0.0,0.0,0.0,1.0,1,100.0,33.0,0.0,1,1.0,0,1.0,0,1.0,0,1.0
369,' 1',639.92522131,-640.0931236,640.0,-640.0,1.0235541721,0,100.0,0.0,0.0,0.0,0.0,1.0,1,100.0,640.0,0.0,1,1.0,0,1.0,0,1.0,0,1.0
379,' 1',131.32049826,-31.16639899,193.0,-193.0,1.017265337,0,100.0,0.0,0.0,0.0,0.0,1.0,1,100.0,193.0,0.0,1,1.0,0,1.0,0,1.0,0,1.0
389,' 1',458.16849706,175.01221076,600.0,-600.0,1.0235656117,0,100.0,0.0,0.0,0.0,0.0,1.0,1,100.0,600.0,0.0,1,1.0,0,1.0,0,1.0,0,1.0
0 / END OF GENERATOR DATA, BEGIN BRANCH DATA
1,4,' 1',0.0365020007,0.2217726598,0.0822860313,227.0,272.4,326.88,0.0,0.0,0.0,0.0,1,1.0,0,1.0,0,1.0,0,1.0,0,1.0
2,3,' 1',0.008299945,0.0504273971,0.0187104686,227.0,272.4,326.88,0.0,0.0,0.0,0.0,1,1.0,0,1.0,0,1.0,0,1.0,0,1.0
2,8,' 1',0.006942542,0.0421803179,0.0156504908,227.0,272.4,326.88,0.0,0.0,0.0,0.0,1,1.0,0,1.0,0,1.0,0,1.0,0,1.0
2,8,'1A',0.006942542,0.0421803179,0.0156504908,227.0,272.4,326.88,0.0,0.0,0.0,0.0,1,1.0,0,1.0,0,1.0,0,1.0,0,1.0
2,25,' 1',0.0055727969,0.0338582537,0.0125626907,227.0,272.4,326.88,0.0,0.0,0.0,0.0,1,1.0,0,1.0,0,1.0,0,1.0,0,1.0
2,40,' 1',0.0043206717,0.0262508037,0.0097400394,227.0,272.4,326.88,0.0,0.0,0.0,0.0,1,1.0,0,1.0,0,1.0,0,1.0,0,1.0
2,40,'1A',0.0044347775,0.0269440681,0.0099972667,227.0,272.4,326.88,0.0,0.0,0.0,0.0,1,1.0,0,1.0,0,1.0,0,1.0,0,1.0
2,40,'1B',0.0044347775,0.0269440681,0.0099972667,227.0,272.4,326.88,0.0,0.0,0.0,0.0,1,1.0,0,1.0,0,1.0,0,1.0,0,1.0
2,49,' 1',0.010046956,0.0610415899,0.0226487349,227.0,272.4,326.88,0.0,0.0,0.0,0.0,1,1.0,0,1.0,0,1.0,0,1.0,0,1.0
3,36,' 1',0.0085378732,0.051872961,0.0192468273,227.0,272.4,326.88,0.0,0.0,0.0,0.0,1,1.0,0,1.0,0,1.0,0,1.0,0,1.0
4,5,' 1',0.0129466388,0.0786589905,0.0291854558,227.0,272.4,326.88,0.0,0.0,0.0,0.0,1,1.0,0,1.0,0,1.0,0,1.0,0,1.0
4,15,' 1',0.0141663657,0.0860696002,0.0319350718,227.0,272.4,326.88,0.0,0.0,0.0,0.0,1,1.0,0,1.0,0,1.0,0,1.0,0,1.0
5,6,' 1',0.0090684113,0.0550963138,0.020442813,227.0,272.4,326.88,0.0,0.0,0.0,0.0,1,1.0,0,1.0,0,1.0,0,1.0,0,1.0
5,15,' 1',0.0115174447,0.0699757355,0.0259636403,227.0,272.4,326.88,0.0,0.0,0.0,0.0,1,1.0,0,1.0,0,1.0,0,1.0,0,1.0
6,7,' 1',0.0065126072,0.0395681932,0.0146812938,227.0,272.4,326.88,0.0,0.0,0.0,0.0,1,1.0,0,1.0,0,1.0,0,1.0,0,1.0
7,12,' 1',0.0158646859,0.0963879658,0.0357635751,227.0,272.4,326.88,0.0,0.0,0.0,0.0,1,1.0,0,1.0,0,1.0,0,1.0,0,1.0
8,28,' 1',0.0044711104,0.0271648135,0.0100791716,227.0,272.4,326.88,0.0,0.0,0.0,0.0,1,1.0,0,1.0,0,1.0,0,1.0,0,1.0
8,44,' 1',0.0227951693,0.13849502,0.0513868823,227.0,272.4,326.88,0.0,0.0,0.0,0.0,1,1.0,0,1.0,0,1.0,0,1.0,0,1.0
9,8,' 1',0.0086627764,0.0526318261,0.019528395,227.0,272.4,326.88,0.0,0.0,0.0,0.0,1,1.0,0,1.0,0,1.0,0,1.0,0,1.0
9,8,'1A',0.0086361048,0.0524697796,0.0194682696,227.0,272.4,326.88,0.0,0.0,0.0,0.0,1,1.0,0,1.0,0,1.0,0,1.0,0,1.0
9,21,' 1',0.0047635568,0.0289416096,0.0107384301,227.0,272.4,326.88,0.0,0.0,0.0,0.0,1,1.0,0,1.0,0,1.0,0,1.0,0,1.0
10,9,' 1',0.0181638859,0.1103570548,0.0409466346,227.0,272.4,326.88,0.0,0.0,0.0,0.0,1,1.0,0,1.0,0,1.0,0,1.0,0,1.0
10,37,' 1',0.0072655544,0.0441428219,0.0163786538,227.0,272.4,326.88,0.0,0.0,0.0,0.0,1,1.0,0,1.0,0,1.0,0,1.0,0,1.0
11,14,' 1',0.0080700812,0.0490308297,0.0181922893,227.0,272.4,326.88,0.0,0.0,0.0,0.0,1,1.0,0,1.0,0,1.0,0,1.0,0,1.0
11,14,'1A',0.0080479987,0.0488966643,0.0181425089,227.0,272.4,326.88,0.0,0.0,0.0,0.0,1,1.0,0,1.0,0,1.0,0,1.0,0,1.0
12,16,' 1',0.0083615177,0.0508014901,0.0188492712,227.0,272.4,326.88,0.0,0.0,0.0,0.0,1,1.0,0,1.0,0,1.0,0,1.0,0,1.0
13,16,' 1',0.0215172187,0.1307306649,0.0485060133,227.0,272.4,326.88,0.0,0.0,0.0,0.0,1,1.0,0,1.0,0,1.0,0,1.0,0,1.0
14,13,' 1',0.0145311087,0.0882856438,0.0327573077,227.0,272.4,326.88,0.0,0.0,0.0,0.0,1,1.0,0,1.0,0,1.0,0,1.0,0,1.0
14,30,' 1',0.0302570295,0.1838305238,0.0682080661,227.0,272.4,326.88,0.0,0.0,0.0,0.0,1,1.0,0,1.0,0,1.0,0,1.0,0,1.0
14,34,' 1',0.0479096152,0.2910811073,0.1080020826,227.0,272.4,326.88,0.0,0.0,0.0,0.0,1,1.0,0,1.0,0,1.0,0,1.0,0,1.0
15,45,' 1',0.0124908185,0.0758895949,0.0281579054,227.0,272.4,326.88,0.0,0.0,0.0,0.0,1,1.0,0,1.0,0,1.0,0,1.0,0,1.0
16,1,' 1',0.0239117357,0.1452788647,0.0539039448,227.0,272.4,326.88,0.0,0.0,0.0,0.0,1,1.0,0,1.0,0,1.0,0,1.0,0,1.0
16,19,' 1',0.0000396811,0.0002410877,0.0000894526,227.0,272.4,326.88,0.0,0.0,0.0,0.0,1,1.0,0,1.0,0,1.0,0,1.0,0,1.0
16,45,' 1',0.0080603624,0.0489717815,0.0181703802,227.0,272.4,326.88,0.0,0.0,0.0,0.0,1,1.0,0,1.0,0,1.0,0,1.0,0,1.0
16,46,' 1',0.0042345135,0.0257273385,0.0095458141,227.0,272.4,326.88,0.0,0.0,0.0,0.0,1,1.0,0,1.0,0,1.0,0,1.0,0,1.0
17,8,' 1',0.0075449988,0.0458406228,0.0170086021,227.0,272.4,326.88,0.0,0.0,0.0,0.0,1,1.0,0,1.0,0,1.0,0,1.0,0,1.0
18,17,' 1',0.0184992192,0.1123944158,0.0417025725,227.0,272.4,326.88,0.0,0.0,0.0,0.0,1,1.0,0,1.0,0,1.0,0,1.0,0,1.0
19,18,' 1',0.0138045533,0.0838713616,0.0311194423,227.0,272.4,326.88,0.0,0.0,0.0,0.0,1,1.0,0,1.0,0,1.0,0,1.0,0,1.0
20,8,' 1',0.0069659597,0.0423225956,0.0157032811,227.0,272.4,326.88,0.0,0.0,0.0,0.0,1,1.0,0,1.0,0,1.0,0,1.0,0,1.0
20,47,' 1',0.0092612019,0.0562676387,0.0208774187,227.0,272.4,326.88,0.0,0.0,0.0,0.0,1,1.0,0,1.0,0,1.0,0,1.0,0,1.0
21,8,' 1',0.0102123016,0.0620461688,0.0230214716,227.0,272.4,326.88,0.0,0.0,0.0,0.0,1,1.0,0,1.0,0,1.0,0,1.0,0,1.0
22,8,' 1',0.0052289057,0.0317688976,0.0117874607,227.0,272.4,326.88,0.0,0.0,0.0,0.0,1,1.0,0,1.0,0,1.0,0,1.0,0,1.0
22,26,' 1',0.0013123328,0.0079732488,0.0029583764,227.0,272.4,326.88,0.0,0.0,0.0,0.0,1,1.0,0,1.0,0,1.0,0,1.0,0,1.0
23,22,' 1',0.0014714331,0.0089398837,0.0033170345,227.0,272.4,326.88,0.0,0.0,0.0,0.0,1,1.0,0,1.0,0,1.0,0,1.0,0,1.0
24,32,' 1',0.0022347215,0.0135773414,0.0050377064,227.0,272.4,326.88,0.0,0.0,0.0,0.0,1,1.0,0,1.0,0,1.0,0,1.0,0,1.0
25,22,' 1',0.0019131759,0.0116237497,0.0043128501,227.0,272.4,326.88,0.0,0.0,0.0,0.0,1,1.0,0,1.0,0,1.0,0,1.0,0,1.0
25,26,' 1',0.0033731781,0.0204941827,0.0076041157,227.0,272.4,326.88,0.0,0.0,0.0,0.0,1,1.0,0,1.0,0,1.0,0,1.0,0,1.0
26,20,' 1',0.0074581979,0.0453132528,0.0168129279,227.0,272.4,326.88,0.0,0.0,0.0,0.0,1,1.0,0,1.0,0,1.0,0,1.0,0,1.0
27,44,' 1',0.0079287048,0.0481718787,0.0178735861,227.0,272.4,326.88,0.0,0.0,0.0,0.0,1,1.0,0,1.0,0,1.0,0,1.0,0,1.0
28,29,' 1',0.0238645517,0.144992192,0.0537975784,227.0,272.4,326.88,0.0,0.0,0.0,0.0,1,1.0,0,1.0,0,1.0,0,1.0,0,1.0
29,27,' 1',0.0095251464,0.0578712679,0.0214724257,227.0,272.4,326.88,0.0,0.0,0.0,0.0,1,1.0,0,1.0,0,1.0,0,1.0,0,1.0
30,10,' 1',0.010225787,0.0621281011,0.0230518716,227.0,272.4,326.88,0.0,0.0,0.0,0.0,1,1.0,0,1.0,0,1.0,0,1.0,0,1.0
30,31,' 1',0.0241998849,0.147029553,0.0545535163,227.0,272.4,326.88,0.0,0.0,0.0,0.0,1,1.0,0,1.0,0,1.0,0,1.0,0,1.0
30,407,' 1',0.0,0.001,0.0,47.77,57.324,68.7888,0.0,0.0,0.0,0.0,1,1.0,0,1.0,0,1.0,0,1.0,0,1.0
31,48,' 1',0.0043034437,0.026146133,0.0097012027,227.0,272.4,326.88,0.0,0.0,0.0,0.0,1,1.0,0,1.0,0,1.0,0,1.0,0,1.0
32,33,' 1',0.0023473329,0.0142615271,0.0052915651,227.0,272.4,326.88,0.0,0.0,0.0,0.0,1,1.0,0,1.0,0,1.0,0,1.0,0,1.0
32,48,' 1',0.0042801965,0.0260048911,0.0096487966,227.0,272.4,326.88,0.0,0.0,0.0,0.0,1,1.0,0,1.0,0,1.0,0,1.0,0,1.0
33,44,' 1',0.008830443,0.0536505066,0.0199063639,227.0,272.4,326.88,0.0,0.0,0.0,0.0,1,1.0,0,1.0,0,1.0,0,1.0,0,1.0
35,12,' 1',0.0168058492,0.1021061257,0.0378852284,227.0,272.4,326.88,0.0,0.0,0.0,0.0,1,1.0,0,1.0,0,1.0,0,1.0,0,1.0
36,35,' 1',0.0044188555,0.026847332,0.009961374,227.0,272.4,326.88,0.0,0.0,0.0,0.0,1,1.0,0,1.0,0,1.0,0,1.0,0,1.0
37,38,' 1',0.0062595545,0.0380307389,0.0141108402,227.0,272.4,326.88,0.0,0.0,0.0,0.0,1,1.0,0,1.0,0,1.0,0,1.0,0,1.0
37,38,'1A',0.0079376186,0.0482260355,0.0178936803,227.0,272.4,326.88,0.0,0.0,0.0,0.0,1,1.0,0,1.0,0,1.0,0,1.0,0,1.0
37,43,' 1',0.0022514047,0.0136787026,0.0050753152,227.0,272.4,326.88,0.0,0.0,0.0,0.0,1,1.0,0,1.0,0,1.0,0,1.0,0,1.0
37,50,' 1',0.0027329662,0.0166044922,0.0061608936,227.0,272.4,326.88,0.0,0.0,0.0,0.0,1,1.0,0,1.0,0,1.0,0,1.0,0,1.0
38,21,' 1',0.011700818,0.0710898438,0.0263770165,227.0,272.4,326.88,0.0,0.0,0.0,0.0,1,1.0,0,1.0,0,1.0,0,1.0,0,1.0
39,9,' 1',0.0267148845,0.1623097606,0.0602230503,227.0,272.4,326.88,0.0,0.0,0.0,0.0,1,1.0,0,1.0,0,1.0,0,1.0,0,1.0
40,25,' 1',0.0039980459,0.0242906484,0.0090127478,227.0,272.4,326.88,0.0,0.0,0.0,0.0,1,1.0,0,1.0,0,1.0,0,1.0,0,1.0
41,42,' 1',0.0073566191,0.0446960974,0.01658394,227.0,272.4,326.88,0.0,0.0,0.0,0.0,1,1.0,0,1.0,0,1.0,0,1.0,0,1.0
41,49,' 1',0.0009049032,0.0054978572,0.0020399126,227.0,272.4,326.88,0.0,0.0,0.0,0.0,1,1.0,0,1.0,0,1.0,0,1.0,0,1.0
42,38,' 1',0.0036470445,0.0221580938,0.0082214895,227.0,272.4,326.88,0.0,0.0,0.0,0.0,1,1.0,0,1.0,0,1.0,0,1.0,0,1.0
43,10,' 1',0.0039904743,0.0242446463,0.0089956793,227.0,272.4,326.88,0.0,0.0,0.0,0.0,1,1.0,0,1.0,0,1.0,0,1.0,0,1.0
43,50,' 1',0.0001986914,0.0012071754,0.0004479077,227.0,272.4,326.88,0.0,0.0,0.0,0.0,1,1.0,0,1.0,0,1.0,0,1.0,0,1.0
51,52,' 1',0.0051127007,0.0397256847,0.2037708609,454.0,544.8,653.76,0.0,0.0,0.0,0.0,1,1.0,0,1.0,0,1.0,0,1.0,0,1.0
51,53,' 1',0.0038199758,0.0296812119,0.1522482533,454.0,544.8,653.76,0.0,0.0,0.0,0.0,1,1.0,0,1.0,0,1.0,0,1.0,0,1.0
52,57,' 1',0.0078967222,0.0613575312,0.3147303078,454.0,544.8,653.76,0.0,0.0,0.0,0.0,1,1.0,0,1.0,0,1.0,0,1.0,0,1.0
52,57,'1A',0.0078967222,0.0613575312,0.3147303078,454.0,544.8,653.76,0.0,0.0,0.0,0.0,1,1.0,0,1.0,0,1.0,0,1.0,0,1.0
54,51,' 1',0.0023613732,0.0183478694,0.0941144548,454.0,544.8,653.76,0.0,0.0,0.0,0.0,1,1.0,0,1.0,0,1.0,0,1.0,0,1.0
55,53,' 1',0.0050489502,0.0392303434,0.2012300331,454.0,544.8,653.76,0.0,0.0,0.0,0.0,1,1.0,0,1.0,0,1.0,0,1.0,0,1.0
57,58,' 1',0.0071648308,0.0556707349,0.285560178,454.0,544.8,653.76,0.0,0.0,0.0,0.0,1,1.0,0,1.0,0,1.0,0,1.0,0,1.0
57,59,' 1',0.0079566818,0.0618234178,0.3171200492,454.0,544.8,653.76,0.0,0.0,0.0,0.0,1,1.0,0,1.0,0,1.0,0,1.0,0,1.0
58,54,' 1',0.0060254918,0.0468180715,0.2401508952,454.0,544.8,653.76,0.0,0.0,0.0,0.0,1,1.0,0,1.0,0,1.0,0,1.0,0,1.0
61,51,' 1',0.0030417949,0.0236347466,0.1212332196,454.0,544.8,653.76,0.0,0.0,0.0,0.0,1,1.0,0,1.0,0,1.0,0,1.0,0,1.0
61,53,' 1',0.0068725267,0.0533995327,0.2739101629,454.0,544.8,653.76,0.0,0.0,0.0,0.0,1,1.0,0,1.0,0,1.0,0,1.0,0,1.0
61,60,' 1',0.00419075,0.0325621275,0.1670257618,454.0,544.8,653.76,0.0,0.0,0.0,0.0,1,1.0,0,1.0,0,1.0,0,1.0,0,1.0
63,70,' 1',0.0,0.000001,0.0,47.77,57.324,68.7888,0.0,0.0,0.0,0.0,1,1.0,0,1.0,0,1.0,0,1.0,0,1.0
63,98,' 1',0.0,0.000001,0.0,47.77,57.324,68.7888,0.0,0.0,0.0,0.0,1,1.0,0,1.0,0,1.0,0,1.0,0,1.0
64,100,' 1',0.3686170311,0.000001,0.0,47.77,57.324,68.7888,0.0,0.0,0.0,0.0,1,1.0,0,1.0,0,1.0,0,1.0,0,1.0
64,101,' 1',0.0,0.000001,0.0,47.77,57.324,68.7888,0.0,0.0,0.0,0.0,1,1.0,0,1.0,0,1.0,0,1.0,0,1.0
64,123,' 1',0.0916580949,0.000001,0.0,47.77,57.324,68.7888,0.0,0.0,0.0,0.0,1,1.0,0,1.0,0,1.0,0,1.0,0,1.0
64,159,' 1',0.0,0.000001,0.0,47.77,57.324,68.7888,0.0,0.0,0.0,0.0,1,1.0,0,1.0,0,1.0,0,1.0,0,1.0
64,187,' 1',0.0,0.000001,0.0,47.77,57.324,68.7888,0.0,0.0,0.0,0.0,1,1.0,0,1.0,0,1.0,0,1.0,0,1.0
64,251,' 1',0.0,0.000001,0.0,47.77,57.324,68.7888,0.0,0.0,0.0,0.0,1,1.0,0,1.0,0,1.0,0,1.0,0,1.0
65,87,' 1',0.0,0.000001,0.0,47.77,57.324,68.7888,0.0,0.0,0.0,0.0,1,1.0,0,1.0,0,1.0,0,1.0,0,1.0
65,114,' 1',0.0,0.000001,0.0,47.77,57.324,68.7888,0.0,0.0,0.0,0.0,1,1.0,0,1.0,0,1.0,0,1.0,0,1.0
65,115,' 1',0.0,0.000001,0.0,47.77,57.324,68.7888,0.0,0.0,0.0,0.0,1,1.0,0,1.0,0,1.0,0,1.0,0,1.0
65,116,' 1',0.0,0.000001,0.0,47.77,57.324,68.7888,0.0,0.0,0.0,0.0,1,1.0,0,1.0,0,1.0,0,1.0,0,1.0
65,117,' 1',0.0,0.000001,0.0,47.77,57.324,68.7888,0.0,0.0,0.0,0.0,1,1.0,0,1.0,0,1.0,0,1.0,0,1.0
65,118,' 1',0.0,0.000001,0.0,47.77,57.324,68.7888,0.0,0.0,0.0,0.0,1,1.0,0,1.0,0,1.0,0,1.0,0,1.0
65,147,' 1',0.0,0.000001,0.0,47.77,57.324,68.7888,0.0,0.0,0.0,0.0,1,1.0,0,1.0,0,1.0,0,1.0,0,1.0
65,157,' 1',0.0,0.000001,0.0,47.77,57.324,68.7888,0.0,0.0,0.0,0.0,1,1.0,0,1.0,0,1.0,0,1.0,0,1.0
65,158,' 1',0.0,0.000001,0.0,47.77,57.324,68.7888,0.0,0.0,0.0,0.0,1,1.0,0,1.0,0,1.0,0,1.0,0,1.0
65,160,' 1',0.0,0.000001,0.0,47.77,57.324,68.7888,0.0,0.0,0.0,0.0,1,1.0,0,1.0,0,1.0,0,1.0,0,1.0
65,192,' 1',0.0,0.000001,0.0,47.77,57.324,68.7888,0.0,0.0,0.0,0.0,1,1.0,0,1.0,0,1.0,0,1.0,0,1.0
65,201,' 1',0.0,0.000001,0.0,47.77,57.324,68.7888,0.0,0.0,0.0,0.0,1,1.0,0,1.0,0,1.0,0,1.0,0,1.0
65,206,' 1',0.0,0.000001,0.0,47.77,57.324,68.7888,0.0,0.0,0.0,0.0,1,1.0,0,1.0,0,1.0,0,1.0,0,1.0
65,211,' 1',0.0,0.000001,0.0,47.77,57.324,68.7888,0.0,0.0,0.0,0.0,1,1.0,0,1.0,0,1.0,0,1.0,0,1.0
65,224,' 1',0.0,0.000001,0.0,47.77,57.324,68.7888,0.0,0.0,0.0,0.0,1,1.0,0,1.0,0,1.0,0,1.0,0,1.0
65,271,' 1',0.0,0.000001,0.0,47.77,57.324,68.7888,0.0,0.0,0.0,0.0,1,1.0,0,1.0,0,1.0,0,1.0,0,1.0
65,273,' 1',0.0,0.000001,0.0,47.77,57.324,68.7888,0.0,0.0,0.0,0.0,1,1.0,0,1.0,0,1.0,0,1.0,0,1.0
65,279,' 1',0.0,0.000001,0.0,47.77,57.324,68.7888,0.0,0.0,0.0,0.0,1,1.0,0,1.0,0,1.0,0,1.0,0,1.0
65,292,' 1',0.0,0.000001,0.0,47.77,57.324,68.7888,0.0,0.0,0.0,0.0,1,1.0,0,1.0,0,1.0,0,1.0,0,1.0
65,295,' 1',0.0,0.000001,0.0,47.77,57.324,68.7888,0.0,0.0,0.0,0.0,1,1.0,0,1.0,0,1.0,0,1.0,0,1.0
65,297,' 1',0.0,0.000001,0.0,47.77,57.324,68.7888,0.0,0.0,0.0,0.0,1,1.0,0,1.0,0,1.0,0,1.0,0,1.0
65,298,' 1',0.0,0.000001,0.0,47.77,57.324,68.7888,0.0,0.0,0.0,0.0,1,1.0,0,1.0,0,1.0,0,1.0,0,1.0
65,336,' 1',0.0,0.000001,0.0,47.77,57.324,68.7888,0.0,0.0,0.0,0.0,1,1.0,0,1.0,0,1.0,0,1.0,0,1.0
65,341,' 1',0.0,0.000001,0.0,47.77,57.324,68.7888,0.0,0.0,0.0,0.0,1,1.0,0,1.0,0,1.0,0,1.0,0,1.0
65,350,' 1',0.0,0.000001,0.0,47.77,57.324,68.7888,0.0,0.0,0.0,0.0,1,1.0,0,1.0,0,1.0,0,1.0,0,1.0
66,164,' 1',0.0,0.000001,0.0,47.77,57.324,68.7888,0.0,0.0,0.0,0.0,1,1.0,0,1.0,0,1.0,0,1.0,0,1.0
67,118,' 1',0.0,0.000001,0.0,47.77,57.324,68.7888,0.0,0.0,0.0,0.0,1,1.0,0,1.0,0,1.0,0,1.0,0,1.0
68,69,' 1',0.0,0.000001,0.0,47.77,57.324,68.7888,0.0,0.0,0.0,0.0,1,1.0,0,1.0,0,1.0,0,1.0,0,1.0
68,93,' 1',0.0,0.000001,0.0,47.77,57.324,68.7888,0.0,0.0,0.0,0.0,1,1.0,0,1.0,0,1.0,0,1.0,0,1.0
68,333,' 1',0.0,0.000001,0.0,47.77,57.324,68.7888,0.0,0.0,0.0,0.0,1,1.0,0,1.0,0,1.0,0,1.0,0,1.0
69,408,' 1',0.0060254918,0.0468180715,0.2401508952,454.0,544.8,653.76,0.0,0.0,0.0,0.0,1,1.0,0,1.0,0,1.0,0,1.0,0,1.0
70,98,' 1',0.0,0.000001,0.0,47.77,57.324,68.7888,0.0,0.0,0.0,0.0,1,1.0,0,1.0,0,1.0,0,1.0,0,1.0
71,129,' 1',0.0,0.000001,0.0,47.77,57.324,68.7888,0.0,0.0,0.0,0.0,1,1.0,0,1.0,0,1.0,0,1.0,0,1.0
72,178,' 1',0.0,0.000001,0.0,47.77,57.324,68.7888,0.0,0.0,0.0,0.0,1,1.0,0,1.0,0,1.0,0,1.0,0,1.0
72,184,' 1',0.0,0.000001,0.0,47.77,57.324,68.7888,0.0,0.0,0.0,0.0,1,1.0,0,1.0,0,1.0,0,1.0,0,1.0
73,138,' 1',0.0,0.000001,0.0,47.77,57.324,68.7888,0.0,0.0,0.0,0.0,1,1.0,0,1.0,0,1.0,0,1.0,0,1.0
73,193,' 1',0.0,0.000001,0.0,47.77,57.324,68.7888,0.0,0.0,0.0,0.0,1,1.0,0,1.0,0,1.0,0,1.0,0,1.0
73,200,' 1',0.0,0.000001,0.0,47.77,57.324,68.7888,0.0,0.0,0.0,0.0,1,1.0,0,1.0,0,1.0,0,1.0,0,1.0
73,250,' 1',0.0,0.000001,0.0,47.77,57.324,68.7888,0.0,0.0,0.0,0.0,1,1.0,0,1.0,0,1.0,0,1.0,0,1.0
77,171,' 1',0.0,0.000001,0.0,47.77,57.324,68.7888,0.0,0.0,0.0,0.0,1,1.0,0,1.0,0,1.0,0,1.0,0,1.0
77,204,' 1',0.0,0.000001,0.0,47.77,57.324,68.7888,0.0,0.0,0.0,0.0,1,1.0,0,1.0,0,1.0,0,1.0,0,1.0
77,217,' 1',0.0,0.000001,0.0,47.77,57.324,68.7888,0.0,0.0,0.0,0.0,1,1.0,0,1.0,0,1.0,0,1.0,0,1.0
77,218,' 1',0.0,0.000001,0.0,47.77,57.324,68.7888,0.0,0.0,0.0,0.0,1,1.0,0,1.0,0,1.0,0,1.0,0,1.0
77,238,' 1',0.0,0.000001,0.0,47.77,57.324,68.7888,0.0,0.0,0.0,0.0,1,1.0,0,1.0,0,1.0,0,1.0,0,1.0
77,239,' 1',0.0,0.000001,0.0,47.77,57.324,68.7888,0.0,0.0,0.0,0.0,1,1.0,0,1.0,0,1.0,0,1.0,0,1.0
77,240,' 1',0.0,0.000001,0.0,47.77,57.324,68.7888,0.0,0.0,0.0,0.0,1,1.0,0,1.0,0,1.0,0,1.0,0,1.0
79,68,' 1',0.0,0.000001,0.0,47.77,57.324,68.7888,0.0,0.0,0.0,0.0,1,1.0,0,1.0,0,1.0,0,1.0,0,1.0
79,69,' 1',0.000001,0.000001,0.0,47.77,57.324,68.7888,0.0,0.0,0.0,0.0,1,1.0,0,1.0,0,1.0,0,1.0,0,1.0
79,93,' 1',0.0,0.000001,0.0,47.77,57.324,68.7888,0.0,0.0,0.0,0.0,1,1.0,0,1.0,0,1.0,0,1.0,0,1.0
79,333,' 1',0.0,0.000001,0.0,47.77,57.324,68.7888,0.0,0.0,0.0,0.0,1,1.0,0,1.0,0,1.0,0,1.0,0,1.0
80,119,' 1',0.0,0.000001,0.0,47.77,57.324,68.7888,0.0,0.0,0.0,0.0,1,1.0,0,1.0,0,1.0,0,1.0,0,1.0
80,120,' 1',0.0,0.000001,0.0,47.77,57.324,68.7888,0.0,0.0,0.0,0.0,1,1.0,0,1.0,0,1.0,0,1.0,0,1.0
80,191,' 1',0.0,0.000001,0.0,47.77,57.324,68.7888,0.0,0.0,0.0,0.0,1,1.0,0,1.0,0,1.0,0,1.0,0,1.0
80,221,' 1',0.0,0.000001,0.0,47.77,57.324,68.7888,0.0,0.0,0.0,0.0,1,1.0,0,1.0,0,1.0,0,1.0,0,1.0
81,122,' 1',0.0,0.000001,0.0,47.77,57.324,68.7888,0.0,0.0,0.0,0.0,1,1.0,0,1.0,0,1.0,0,1.0,0,1.0
81,125,' 1',0.0,0.000001,0.0,47.77,57.324,68.7888,0.0,0.0,0.0,0.0,1,1.0,0,1.0,0,1.0,0,1.0,0,1.0
81,127,' 1',0.0,0.000001,0.0,47.77,57.324,68.7888,0.0,0.0,0.0,0.0,1,1.0,0,1.0,0,1.0,0,1.0,0,1.0
81,131,' 1',0.0,0.000001,0.0,47.77,57.324,68.7888,0.0,0.0,0.0,0.0,1,1.0,0,1.0,0,1.0,0,1.0,0,1.0
81,160,' 1',0.0,0.000001,0.0,47.77,57.324,68.7888,0.0,0.0,0.0,0.0,1,1.0,0,1.0,0,1.0,0,1.0,0,1.0
81,170,' 1',0.0,0.000001,0.0,47.77,57.324,68.7888,0.0,0.0,0.0,0.0,1,1.0,0,1.0,0,1.0,0,1.0,0,1.0
82,91,' 1',0.0,0.000001,0.0,47.77,57.324,68.7888,0.0,0.0,0.0,0.0,1,1.0,0,1.0,0,1.0,0,1.0,0,1.0
83,64,' 1',0.0,0.000001,0.0,47.77,57.324,68.7888,0.0,0.0,0.0,0.0,1,1.0,0,1.0,0,1.0,0,1.0,0,1.0
83,100,' 1',0.0,0.000001,0.0,47.77,57.324,68.7888,0.0,0.0,0.0,0.0,1,1.0,0,1.0,0,1.0,0,1.0,0,1.0
83,101,' 1',0.0,0.000001,0.0,47.77,57.324,68.7888,0.0,0.0,0.0,0.0,1,1.0,0,1.0,0,1.0,0,1.0,0,1.0
83,123,' 1',0.0,0.000001,0.0,47.77,57.324,68.7888,0.0,0.0,0.0,0.0,1,1.0,0,1.0,0,1.0,0,1.0,0,1.0
83,159,' 1',0.0,0.000001,0.0,47.77,57.324,68.7888,0.0,0.0,0.0,0.0,1,1.0,0,1.0,0,1.0,0,1.0,0,1.0
83,187,' 1',0.0,0.000001,0.0,47.77,57.324,68.7888,0.0,0.0,0.0,0.0,1,1.0,0,1.0,0,1.0,0,1.0,0,1.0
83,251,' 1',0.0,0.000001,0.0,47.77,57.324,68.7888,0.0,0.0,0.0,0.0,1,1.0,0,1.0,0,1.0,0,1.0,0,1.0
83,267,' 1',0.0,0.000001,0.0,47.77,57.324,68.7888,0.0,0.0,0.0,0.0,1,1.0,0,1.0,0,1.0,0,1.0,0,1.0
83,272,' 1',0.7135032916,0.000001,0.0,47.77,57.324,68.7888,0.0,0.0,0.0,0.0,1,1.0,0,1.0,0,1.0,0,1.0,0,1.0
84,71,' 1',0.0,0.000001,0.0,47.77,57.324,68.7888,0.0,0.0,0.0,0.0,1,1.0,0,1.0,0,1.0,0,1.0,0,1.0
84,129,' 1',0.0,0.000001,0.0,47.77,57.324,68.7888,0.0,0.0,0.0,0.0,1,1.0,0,1.0,0,1.0,0,1.0,0,1.0
84,133,' 1',0.0,0.000001,0.0,47.77,57.324,68.7888,0.0,0.0,0.0,0.0,1,1.0,0,1.0,0,1.0,0,1.0,0,1.0
84,146,' 1',0.0,0.000001,0.0,47.77,57.324,68.7888,0.0,0.0,0.0,0.0,1,1.0,0,1.0,0,1.0,0,1.0,0,1.0
84,148,' 1',0.0,0.000001,0.0,47.77,57.324,68.7888,0.0,0.0,0.0,0.0,1,1.0,0,1.0,0,1.0,0,1.0,0,1.0
84,149,' 1',0.0,0.000001,0.0,47.77,57.324,68.7888,0.0,0.0,0.0,0.0,1,1.0,0,1.0,0,1.0,0,1.0,0,1.0
84,154,' 1',0.0,0.000001,0.0,47.77,57.324,68.7888,0.0,0.0,0.0,0.0,1,1.0,0,1.0,0,1.0,0,1.0,0,1.0
85,71,' 1',0.0,0.000001,0.0,47.77,57.324,68.7888,0.0,0.0,0.0,0.0,1,1.0,0,1.0,0,1.0,0,1.0,0,1.0
85,84,' 1',0.0,0.000001,0.0,47.77,57.324,68.7888,0.0,0.0,0.0,0.0,1,1.0,0,1.0,0,1.0,0,1.0,0,1.0
85,129,' 1',0.0,0.000001,0.0,47.77,57.324,68.7888,0.0,0.0,0.0,0.0,1,1.0,0,1.0,0,1.0,0,1.0,0,1.0
85,133,' 1',0.0,0.000001,0.0,47.77,57.324,68.7888,0.0,0.0,0.0,0.0,1,1.0,0,1.0,0,1.0,0,1.0,0,1.0
85,146,' 1',0.0,0.000001,0.0,47.77,57.324,68.7888,0.0,0.0,0.0,0.0,1,1.0,0,1.0,0,1.0,0,1.0,0,1.0
85,148,' 1',0.6911238265,0.000001,0.0,47.77,57.324,68.7888,0.0,0.0,0.0,0.0,1,1.0,0,1.0,0,1.0,0,1.0,0,1.0
85,149,' 1',0.0,0.000001,0.0,47.77,57.324,68.7888,0.0,0.0,0.0,0.0,1,1.0,0,1.0,0,1.0,0,1.0,0,1.0
85,154,' 1',0.0,0.000001,0.0,47.77,57.324,68.7888,0.0,0.0,0.0,0.0,1,1.0,0,1.0,0,1.0,0,1.0,0,1.0
86,213,' 1',0.0000008333,0.000001,0.0,47.77,57.324,68.7888,0.0,0.0,0.0,0.0,1,1.0,0,1.0,0,1.0,0,1.0,0,1.0
87,114,' 1',0.0,0.000001,0.0,47.77,57.324,68.7888,0.0,0.0,0.0,0.0,1,1.0,0,1.0,0,1.0,0,1.0,0,1.0
87,115,' 1',0.0,0.000001,0.0,47.77,57.324,68.7888,0.0,0.0,0.0,0.0,1,1.0,0,1.0,0,1.0,0,1.0,0,1.0
87,116,' 1',0.0,0.000001,0.0,47.77,57.324,68.7888,0.0,0.0,0.0,0.0,1,1.0,0,1.0,0,1.0,0,1.0,0,1.0
87,117,' 1',0.0,0.000001,0.0,47.77,57.324,68.7888,0.0,0.0,0.0,0.0,1,1.0,0,1.0,0,1.0,0,1.0,0,1.0
87,118,' 1',0.0,0.000001,0.0,47.77,57.324,68.7888,0.0,0.0,0.0,0.0,1,1.0,0,1.0,0,1.0,0,1.0,0,1.0
88,214,' 1',0.0,0.000001,0.0,47.77,57.324,68.7888,0.0,0.0,0.0,0.0,1,1.0,0,1.0,0,1.0,0,1.0,0,1.0
89,65,' 1',0.0,0.000001,0.0,47.77,57.324,68.7888,0.0,0.0,0.0,0.0,1,1.0,0,1.0,0,1.0,0,1.0,0,1.0
89,87,' 1',0.0,0.000001,0.0,47.77,57.324,68.7888,0.0,0.0,0.0,0.0,1,1.0,0,1.0,0,1.0,0,1.0,0,1.0
89,114,' 1',0.0,0.000001,0.0,47.77,57.324,68.7888,0.0,0.0,0.0,0.0,1,1.0,0,1.0,0,1.0,0,1.0,0,1.0
89,115,' 1',0.0,0.000001,0.0,47.77,57.324,68.7888,0.0,0.0,0.0,0.0,1,1.0,0,1.0,0,1.0,0,1.0,0,1.0
89,116,' 1',0.0,0.000001,0.0,47.77,57.324,68.7888,0.0,0.0,0.0,0.0,1,1.0,0,1.0,0,1.0,0,1.0,0,1.0
89,117,' 1',0.0,0.000001,0.0,47.77,57.324,68.7888,0.0,0.0,0.0,0.0,1,1.0,0,1.0,0,1.0,0,1.0,0,1.0
89,118,' 1',0.0,0.000001,0.0,47.77,57.324,68.7888,0.0,0.0,0.0,0.0,1,1.0,0,1.0,0,1.0,0,1.0,0,1.0
89,147,' 1',0.0,0.000001,0.0,47.77,57.324,68.7888,0.0,0.0,0.0,0.0,1,1.0,0,1.0,0,1.0,0,1.0,0,1.0
89,157,' 1',0.0,0.000001,0.0,47.77,57.324,68.7888,0.0,0.0,0.0,0.0,1,1.0,0,1.0,0,1.0,0,1.0,0,1.0
89,158,' 1',0.0,0.000001,0.0,47.77,57.324,68.7888,0.0,0.0,0.0,0.0,1,1.0,0,1.0,0,1.0,0,1.0,0,1.0
89,160,' 1',0.0,0.000001,0.0,47.77,57.324,68.7888,0.0,0.0,0.0,0.0,1,1.0,0,1.0,0,1.0,0,1.0,0,1.0
89,192,' 1',0.0,0.000001,0.0,47.77,57.324,68.7888,0.0,0.0,0.0,0.0,1,1.0,0,1.0,0,1.0,0,1.0,0,1.0
89,201,' 1',0.0,0.000001,0.0,47.77,57.324,68.7888,0.0,0.0,0.0,0.0,1,1.0,0,1.0,0,1.0,0,1.0,0,1.0
89,206,' 1',0.0,0.000001,0.0,47.77,57.324,68.7888,0.0,0.0,0.0,0.0,1,1.0,0,1.0,0,1.0,0,1.0,0,1.0
89,211,' 1',0.0,0.000001,0.0,47.77,57.324,68.7888,0.0,0.0,0.0,0.0,1,1.0,0,1.0,0,1.0,0,1.0,0,1.0
89,224,' 1',0.0,0.000001,0.0,47.77,57.324,68.7888,0.0,0.0,0.0,0.0,1,1.0,0,1.0,0,1.0,0,1.0,0,1.0
...
0 / END OF BRANCH DATA, BEGIN TRANSFORMER DATA
1,69,0,' 1',1,1,1,0.0,0.0,2,'            ',1,0,1.0,0,1.0,0,1.0,0,1.0
0.0061,0.04956,100.0,
1.0,0.0,0.0,350.0,420.0,504.0,0,1,1.5,0.5,1.5,1.5,33,0,0.0,0.0
1.0,0.0
2,65,0,' 1',1,1,1,0.0,0.0,2,'            ',1,0,1.0,0,1.0,0,1.0,0,1.0
0.0061,0.04956,100.0,
1.0,0.0,0.0,350.0,420.0,504.0,0,1,1.5,0.5,1.5,1.5,33,0,0.0,0.0
1.0,0.0
3,90,0,' 1',1,1,1,0.0,0.0,2,'            ',1,0,1.0,0,1.0,0,1.0,0,1.0
0.0061,0.04956,100.0,
1.0,0.0,0.0,350.0,420.0,504.0,0,1,1.5,0.5,1.5,1.5,33,0,0.0,0.0
1.0,0.0
5,83,0,' 1',1,1,1,0.0,0.0,2,'            ',1,0,1.0,0,1.0,0,1.0,0,1.0
0.0061,0.04956,100.0,
1.0,0.0,0.0,350.0,420.0,504.0,0,1,1.5,0.5,1.5,1.5,33,0,0.0,0.0
1.0,0.0
6,89,0,' 1',1,1,1,0.0,0.0,2,'            ',1,0,1.0,0,1.0,0,1.0,0,1.0
0.0061,0.04956,100.0,
1.0,0.0,0.0,350.0,420.0,504.0,0,1,1.5,0.5,1.5,1.5,33,0,0.0,0.0
1.0,0.0
7,88,0,' 1',1,1,1,0.0,0.0,2,'            ',1,0,1.0,0,1.0,0,1.0,0,1.0
0.0061,0.04956,100.0,
1.0,0.0,0.0,350.0,420.0,504.0,0,1,1.5,0.5,1.5,1.5,33,0,0.0,0.0
1.0,0.0
8,76,0,' 1',1,1,1,0.0,0.0,2,'            ',1,0,1.0,0,1.0,0,1.0,0,1.0
0.0061,0.04956,100.0,
1.0,0.0,0.0,350.0,420.0,504.0,0,1,1.5,0.5,1.5,1.5,33,0,0.0,0.0
1.0,0.0
9,62,0,' 1',1,1,1,0.0,0.0,2,'            ',1,0,1.0,0,1.0,0,1.0,0,1.0
0.0061,0.04956,100.0,
1.0,0.0,0.0,350.0,420.0,504.0,0,1,1.5,0.5,1.5,1.5,33,0,0.0,0.0
1.0,0.0
11,72,0,' 1',1,1,1,0.0,0.0,2,'            ',1,0,1.0,0,1.0,0,1.0,0,1.0
0.0061,0.04956,100.0,
1.0,0.0,0.0,350.0,420.0,504.0,0,1,1.5,0.5,1.5,1.5,33,0,0.0,0.0
1.0,0.0
12,64,0,' 1',1,1,1,0.0,0.0,2,'            ',1,0,1.0,0,1.0,0,1.0,0,1.0
0.0061,0.04956,100.0,
1.0,0.0,0.0,350.0,420.0,504.0,0,1,1.5,0.5,1.5,1.5,33,0,0.0,0.0
1.0,0.0
13,86,0,' 1',1,1,1,0.0,0.0,2,'            ',1,0,1.0,0,1.0,0,1.0,0,1.0
0.0061,0.04956,100.0,
1.0,0.0,0.0,350.0,420.0,504.0,0,1,1.5,0.5,1.5,1.5,33,0,0.0,0.0
1.0,0.0
15,91,0,' 1',1,1,1,0.0,0.0,2,'            ',1,0,1.0,0,1.0,0,1.0,0,1.0
0.0061,0.04956,100.0,
1.0,0.0,0.0,350.0,420.0,504.0,0,1,1.5,0.5,1.5,1.5,33,0,0.0,0.0
1.0,0.0
16,71,0,' 1',1,1,1,0.0,0.0,2,'            ',1,0,1.0,0,1.0,0,1.0,0,1.0
0.0061,0.04956,100.0,
1.0,0.0,0.0,350.0,420.0,504.0,0,1,1.5,0.5,1.5,1.5,33,0,0.0,0.0
1.0,0.0
17,94,0,' 1',1,1,1,0.0,0.0,2,'            ',1,0,1.0,0,1.0,0,1.0,0,1.0
0.0061,0.04956,100.0,
1.0,0.0,0.0,350.0,420.0,504.0,0,1,1.5,0.5,1.5,1.5,33,0,0.0,0.0
1.0,0.0
19,71,0,' 1',1,1,1,0.0,0.0,2,'            ',1,0,1.0,0,1.0,0,1.0,0,1.0
0.0061,0.04956,100.0,
1.0,0.0,0.0,350.0,420.0,504.0,0,1,1.5,0.5,1.5,1.5,33,0,0.0,0.0
1.0,0.0
20,81,0,' 1',1,1,1,0.0,0.0,2,'            ',1,0,1.0,0,1.0,0,1.0,0,1.0
0.0061,0.04956,100.0,
1.0,0.0,0.0,350.0,420.0,504.0,0,1,1.5,0.5,1.5,1.5,33,0,0.0,0.0
1.0,0.0
21,93,0,' 1',1,1,1,0.0,0.0,2,'            ',1,0,1.0,0,1.0,0,1.0,0,1.0
0.0061,0.04956,100.0,
1.0,0.0,0.0,350.0,420.0,504.0,0,1,1.5,0.5,1.5,1.5,33,0,0.0,0.0
1.0,0.0
22,82,0,' 1',1,1,1,0.0,0.0,2,'            ',1,0,1.0,0,1.0,0,1.0,0,1.0
0.0061,0.04956,100.0,
1.0,0.0,0.0,350.0,420.0,504.0,0,1,1.5,0.5,1.5,1.5,33,0,0.0,0.0
1.0,0.0
24,87,0,' 1',1,1,1,0.0,0.0,2,'            ',1,0,1.0,0,1.0,0,1.0,0,1.0
0.0061,0.04956,100.0,
1.0,0.0,0.0,350.0,420.0,504.0,0,1,1.5,0.5,1.5,1.5,33,0,0.0,0.0
1.0,0.0
25,82,0,' 1',1,1,1,0.0,0.0,2,'            ',1,0,1.0,0,1.0,0,1.0,0,1.0
0.0061,0.04956,100.0,
1.0,0.0,0.0,350.0,420.0,504.0,0,1,1.5,0.5,1.5,1.5,33,0,0.0,0.0
1.0,0.0
26,74,0,' 1',1,1,1,0.0,0.0,2,'            ',1,0,1.0,0,1.0,0,1.0,0,1.0
0.0061,0.04956,100.0,
1.0,0.0,0.0,350.0,420.0,504.0,0,1,1.5,0.5,1.5,1.5,33,0,0.0,0.0
1.0,0.0
27,70,0,' 1',1,1,1,0.0,0.0,2,'            ',1,0,1.0,0,1.0,0,1.0,0,1.0
0.0061,0.04956,100.0,
1.0,0.0,0.0,350.0,420.0,504.0,0,1,1.5,0.5,1.5,1.5,33,0,0.0,0.0
1.0,0.0
29,73,0,' 1',1,1,1,0.0,0.0,2,'            ',1,0,1.0,0,1.0,0,1.0,0,1.0
0.0061,0.04956,100.0,
1.0,0.0,0.0,350.0,420.0,504.0,0,1,1.5,0.5,1.5,1.5,33,0,0.0,0.0
1.0,0.0
30,63,0,' 1',1,1,1,0.0,0.0,2,'            ',1,0,1.0,0,1.0,0,1.0,0,1.0
0.0061,0.04956,100.0,
1.0,0.0,0.0,350.0,420.0,504.0,0,1,1.5,0.5,1.5,1.5,33,0,0.0,0.0
1.0,0.0
31,85,0,' 1',1,1,1,0.0,0.0,2,'            ',1,0,1.0,0,1.0,0,1.0,0,1.0
0.0061,0.04956,100.0,
1.0,0.0,0.0,350.0,420.0,504.0,0,1,1.5,0.5,1.5,1.5,33,0,0.0,0.0
1.0,0.0
32,87,0,' 1',1,1,1,0.0,0.0,2,'            ',1,0,1.0,0,1.0,0,1.0,0,1.0
0.0061,0.04956,100.0,
1.0,0.0,0.0,350.0,420.0,504.0,0,1,1.5,0.5,1.5,1.5,33,0,0.0,0.0
1.0,0.0
33,75,0,' 1',1,1,1,0.0,0.0,2,'            ',1,0,1.0,0,1.0,0,1.0,0,1.0
0.0061,0.04956,100.0,
1.0,0.0,0.0,350.0,420.0,504.0,0,1,1.5,0.5,1.5,1.5,33,0,0.0,0.0
1.0,0.0
34,78,0,' 1',1,1,1,0.0,0.0,2,'            ',1,0,1.0,0,1.0,0,1.0,0,1.0
0.0061,0.04956,100.0,
1.0,0.0,0.0,350.0,420.0,504.0,0,1,1.5,0.5,1.5,1.5,33,0,0.0,0.0
1.0,0.0
35,95,0,' 1',1,1,1,0.0,0.0,2,'            ',1,0,1.0,0,1.0,0,1.0,0,1.0
0.0061,0.04956,100.0,
1.0,0.0,0.0,350.0,420.0,504.0,0,1,1.5,0.5,1.5,1.5,33,0,0.0,0.0
1.0,0.0
36,77,0,' 1',1,1,1,0.0,0.0,2,'            ',1,0,1.0,0,1.0,0,1.0,0,1.0
0.0061,0.04956,100.0,
1.0,0.0,0.0,350.0,420.0,504.0,0,1,1.5,0.5,1.5,1.5,33,0,0.0,0.0
1.0,0.0
37,66,0,' 1',1,1,1,0.0,0.0,2,'            ',1,0,1.0,0,1.0,0,1.0,0,1.0
0.0061,0.04956,100.0,
1.0,0.0,0.0,350.0,420.0,504.0,0,1,1.5,0.5,1.5,1.5,33,0,0.0,0.0
1.0,0.0
38,96,0,' 1',1,1,1,0.0,0.0,2,'            ',1,0,1.0,0,1.0,0,1.0,0,1.0
0.0061,0.04956,100.0,
1.0,0.0,0.0,350.0,420.0,504.0,0,1,1.5,0.5,1.5,1.5,33,0,0.0,0.0
1.0,0.0
40,68,0,' 1',1,1,1,0.0,0.0,2,'            ',1,0,1.0,0,1.0,0,1.0,0,1.0
0.0061,0.04956,100.0,
1.0,0.0,0.0,350.0,420.0,504.0,0,1,1.5,0.5,1.5,1.5,33,0,0.0,0.0
1.0,0.0
41,78,0,' 1',1,1,1,0.0,0.0,2,'            ',1,0,1.0,0,1.0,0,1.0,0,1.0
0.0061,0.04956,100.0,
1.0,0.0,0.0,350.0,420.0,504.0,0,1,1.5,0.5,1.5,1.5,33,0,0.0,0.0
1.0,0.0
42,79,0,' 1',1,1,1,0.0,0.0,2,'            ',1,0,1.0,0,1.0,0,1.0,0,1.0
0.0061,0.04956,100.0,
1.0,0.0,0.0,350.0,420.0,504.0,0,1,1.5,0.5,1.5,1.5,33,0,0.0,0.0
1.0,0.0
43,67,0,' 1',1,1,1,0.0,0.0,2,'            ',1,0,1.0,0,1.0,0,1.0,0,1.0
0.0061,0.04956,100.0,
1.0,0.0,0.0,350.0,420.0,504.0,0,1,1.5,0.5,1.5,1.5,33,0,0.0,0.0
1.0,0.0
44,80,0,' 1',1,1,1,0.0,0.0,2,'            ',1,0,1.0,0,1.0,0,1.0,0,1.0
0.0061,0.04956,100.0,
1.0,0.0,0.0,350.0,420.0,504.0,0,1,1.5,0.5,1.5,1.5,33,0,0.0,0.0
1.0,0.0
45,92,0,' 1',1,1,1,0.0,0.0,2,'            ',1,0,1.0,0,1.0,0,1.0,0,1.0
0.0061,0.04956,100.0,
1.0,0.0,0.0,350.0,420.0,504.0,0,1,1.5,0.5,1.5,1.5,33,0,0.0,0.0
1.0,0.0
47,84,0,' 1',1,1,1,0.0,0.0,2,'            ',1,0,1.0,0,1.0,0,1.0,0,1.0
0.0061,0.04956,100.0,
1.0,0.0,0.0,350.0,420.0,504.0,0,1,1.5,0.5,1.5,1.5,33,0,0.0,0.0
1.0,0.0
49,78,0,' 1',1,1,1,0.0,0.0,2,'            ',1,0,1.0,0,1.0,0,1.0,0,1.0
0.0061,0.04956,100.0,
1.0,0.0,0.0,350.0,420.0,504.0,0,1,1.5,0.5,1.5,1.5,33,0,0.0,0.0
1.0,0.0
50,67,0,' 1',1,1,1,0.0,0.0,2,'            ',1,0,1.0,0,1.0,0,1.0,0,1.0
0.0061,0.04956,100.0,
1.0,0.0,0.0,350.0,420.0,504.0,0,1,1.5,0.5,1.5,1.5,33,0,0.0,0.0
1.0,0.0
51,9,0,' 1',1,1,1,0.0,0.0,2,'            ',1,0,1.0,0,1.0,0,1.0,0,1.0
0.00228,0.07997,100.0,
1.0,0.0,0.0,700.0,840.0,1008.0,0,1,1.5,0.5,1.5,1.5,33,0,0.0,0.0
1.0,0.0
52,30,0,' 1',1,1,1,0.0,0.0,2,'            ',1,0,1.0,0,1.0,0,1.0,0,1.0
0.00228,0.07997,100.0,
1.0,0.0,0.0,700.0,840.0,1008.0,0,1,1.5,0.5,1.5,1.5,33,0,0.0,0.0
1.0,0.0
53,10,0,' 1',1,1,1,0.0,0.0,2,'            ',1,0,1.0,0,1.0,0,1.0,0,1.0
0.00228,0.07997,100.0,
1.0,0.0,0.0,700.0,840.0,1008.0,0,1,1.5,0.5,1.5,1.5,33,0,0.0,0.0
1.0,0.0
54,2,0,' 1',1,1,1,0.0,0.0,2,'            ',1,0,1.0,0,1.0,0,1.0,0,1.0
0.00228,0.07997,100.0,
1.0,0.0,0.0,700.0,840.0,1008.0,0,1,1.5,0.5,1.5,1.5,33,0,0.0,0.0
1.0,0.0
55,32,0,' 1',1,1,1,0.0,0.0,2,'            ',1,0,1.0,0,1.0,0,1.0,0,1.0
0.00228,0.07997,100.0,
1.0,0.0,0.0,700.0,840.0,1008.0,0,1,1.5,0.5,1.5,1.5,33,0,0.0,0.0
1.0,0.0
56,9,0,' 1',1,1,1,0.0,0.0,2,'            ',1,0,1.0,0,1.0,0,1.0,0,1.0
0.001630692,0.0126704768,100.0,
1.0,0.0,0.0,700.0,840.0,1008.0,0,1,1.5,0.5,1.5,1.5,33,0,0.0,0.0
1.0,0.0
56,34,0,' 1',1,1,1,0.0,0.0,2,'            ',1,0,1.0,0,1.0,0,1.0,0,1.0
0.00228,0.07997,100.0,
1.0,0.0,0.0,700.0,840.0,1008.0,0,1,1.5,0.5,1.5,1.5,33,0,0.0,0.0
1.0,0.0
57,1,0,' 1',1,1,1,0.0,0.0,2,'            ',1,0,1.0,0,1.0,0,1.0,0,1.0
0.00228,0.07997,100.0,
1.0,0.0,0.0,700.0,840.0,1008.0,0,1,1.5,0.5,1.5,1.5,33,0,0.0,0.0
1.0,0.0
58,35,0,' 1',1,1,1,0.0,0.0,2,'            ',1,0,1.0,0,1.0,0,1.0,0,1.0
0.00228,0.07997,100.0,
1.0,0.0,0.0,700.0,840.0,1008.0,0,1,1.5,0.5,1.5,1.5,33,0,0.0,0.0
1.0,0.0
...
0 / END OF TRANSFORMER DATA, BEGIN AREA INTERCHANGE DATA
1,0,0.0,10.0,'            '
0 / END OF AREA INTERCHANGE DATA, BEGIN TWO-TERMINAL DC LINE DATA
0 / END OF TWO-TERMINAL DC LINE DATA, BEGIN VSC DC LINE DATA
0 / END OF VSC DC LINE DATA, BEGIN SWITCHED SHUNT DATA
3,2,1.075,0.9875,0,100.0,'            ',11.67278664,15,-1.0,40,1.0,0,0.0,0,0.0,0,0.0,0,0.0,0,0.0,0,0.0
4,2,1.075,0.9875,0,100.0,'            ',-5.90787093,15,-1.0,40,1.0,0,0.0,0,0.0,0,0.0,0,0.0,0,0.0,0,0.0
5,2,1.075,0.9875,0,100.0,'            ',39.97720383,15,-1.0,40,1.0,0,0.0,0,0.0,0,0.0,0,0.0,0,0.0,0,0.0
8,2,1.075,0.9875,0,100.0,'            ',40.0,15,-1.0,40,1.0,0,0.0,0,0.0,0,0.0,0,0.0,0,0.0,0,0.0
20,2,1.075,0.9875,0,100.0,'            ',21.21444466,15,-1.0,40,1.0,0,0.0,0,0.0,0,0.0,0,0.0,0,0.0,0,0.0
21,2,1.075,0.9875,0,100.0,'            ',-7.77113796,15,-1.0,40,1.0,0,0.0,0,0.0,0,0.0,0,0.0,0,0.0,0,0.0
26,2,1.075,0.9875,0,100.0,'            ',16.90963325,15,-1.0,40,1.0,0,0.0,0,0.0,0,0.0,0,0.0,0,0.0,0,0.0
29,2,1.075,0.9875,0,100.0,'            ',35.04982379,15,-1.0,40,1.0,0,0.0,0,0.0,0,0.0,0,0.0,0,0.0,0,0.0
35,2,1.075,0.9875,0,100.0,'            ',36.2792482,15,-1.0,40,1.0,0,0.0,0,0.0,0,0.0,0,0.0,0,0.0,0,0.0
38,2,1.075,0.9875,0,100.0,'            ',-15.0,15,-1.0,40,1.0,0,0.0,0,0.0,0,0.0,0,0.0,0,0.0,0,0.0
48,2,1.075,0.9875,0,100.0,'            ',40.0,15,-1.0,40,1.0,0,0.0,0,0.0,0,0.0,0,0.0,0,0.0,0,0.0
0 / END OF SWITCHED SHUNT DATA, BEGIN TRANSFORMER IMPEDANCE CORRECTION DATA
0 / END OF TRANSFORMER IMPEDANCE CORRECTION DATA, BEGIN MULTI-TERMINAL DC LINE DATA
0 / END OF MULTI-TERMINAL DC LINE DATA, BEGIN MULTI-SECTION LINE GROUPING DATA
0 / END OF MULTI-SECTION LINE GROUPING DATA, BEGIN ZONE DATA
0 / END OF ZONE DATA, BEGIN INTER-AREA TRANSFER DATA
0 / END OF INTER-AREA TRANSFER DATA, BEGIN OWNER DATA
0 / END OF OWNER DATA, BEGIN FACTS CONTROL DEVICE DATA
0 / END OF FACTS CONTROL DEVICE DATA, END OF CASE DATA
